/*---------------------------------------------------------------------------*\
| =========                 |                                                 |
| \\      /  F ield         | OpenFOAM: The Open Source CFD Toolbox           |
|  \\    /   O peration     | Version:  2106                                  |
|   \\  /    A nd           | Website:  www.openfoam.com                      |
|    \\/     M anipulation  |                                                 |
\*---------------------------------------------------------------------------*/
Build  : _4a824ac2-20260127 OPENFOAM=2106 patch=260127
Arch   : "LSB;label=32;scalar=64"
Exec   : pisoFoam
Date   : Jun 04 2026
Time   : 20:24:55
Host   : iwamoto-MS-7D25
PID    : 2985349
I/O    : uncollated
Case   : /home/iwamoto/Desktop/RAS/cavity
nProcs : 1
trapFpe: Floating point exception trapping enabled (FOAM_SIGFPE).
fileModificationChecking : Monitoring run-time modified files using timeStampMaster (fileModificationSkew 5, maxFileModificationPolls 20)
allowSystemOperations : Allowing user-supplied system call operations

// * * * * * * * * * * * * * * * * * * * * * * * * * * * * * * * * * * * * * //
Create time

Create mesh for time = 0


PISO: Operating solver in PISO mode

Reading field p

Reading field U

Reading/calculating face flux field phi

Selecting incompressible transport model Newtonian
Selecting turbulence model type RAS
Selecting RAS turbulence model kEpsilon
RAS
{
    RASModel        kEpsilon;
    turbulence      on;
    printCoeffs     on;
    Cmu             0.09;
    C1              1.44;
    C2              1.92;
    C3              0;
    sigmak          1;
    sigmaEps        1.3;
}

No MRF models present

No finite volume options present

Starting time loop

fieldAverage fieldAverage1:
    Restarting averaging for fields:
        U: starting averaging at time 0

ddt2 fields: 2(U p)
limitFields limitFields1:
    Imposing lower limit 0
    Imposing upper limit 5

momentum momentum1:
Integrating for selection: all (region0)
    Momentum fields will be written

nearWallFields nearWallFields1: Sampling 2 fields
pressure pressure1:
    Operating mode: static
    Not including hydrostatic effects

pressure pressure2:
    Operating mode: total
    Not including hydrostatic effects

pressure pressure3:
    Operating mode: staticCoeff
    Not including hydrostatic effects

pressure pressure4:
    Operating mode: totalCoeff
    Not including hydrostatic effects

setFlow1:
    operating mode: function
    reverse flow direction at time: 1

streamLine streamLine1:
    Employing velocity field U
    automatic track length specified through number of sub cycles : 1

turbulenceFields turbulenceFields1: storing fields:
    turbulenceProperties:nut
    turbulenceProperties:nuEff
    turbulenceProperties:k
    turbulenceProperties:nuTilda
    turbulenceProperties:R
    turbulenceProperties:L
    turbulenceProperties:devReff
    turbulenceProperties:omega
    turbulenceProperties:epsilon

turbulenceFields turbulenceFields2: storing fields:
    turbulenceProperties:I



































reference reference1
    field: U
    scale: 1
    sample position: (0 0 0)

reference reference2
    field: p
    scale: -2
    sample position: (0 0 0)

wallShearStress wallShearStress1:
    processing wall patches: 
        fixedWalls

zeroGradient fields: 3(U "(epsilon|omega)" p)
zeroGradient fields: 3(U "(epsilon|omega)" p)
Time = 0.005

Courant Number mean: 0 max: 0
smoothSolver:  Solving for Ux, Initial residual = 1, Final residual = 1.1324e-06, No Iterations 5
smoothSolver:  Solving for Uy, Initial residual = 1, Final residual = 6.71435e-07, No Iterations 5
GAMG:  Solving for p, Initial residual = 1, Final residual = 0.0378382, No Iterations 2
time step continuity errors : sum local = 5.90272e-06, global = 6.61744e-22, cumulative = 6.61744e-22
GAMG:  Solving for p, Initial residual = 0.0371368, Final residual = 6.05335e-07, No Iterations 10
time step continuity errors : sum local = 2.15891e-10, global = -4.29423e-21, cumulative = -3.63249e-21
smoothSolver:  Solving for epsilon, Initial residual = 0.0108884, Final residual = 7.58625e-07, No Iterations 3
smoothSolver:  Solving for k, Initial residual = 1, Final residual = 6.868e-07, No Iterations 5
ExecutionTime = 0.01 s  ClockTime = 0 s

fieldAverage fieldAverage1:
    Reading/initialising field UMean
    Reading/initialising field UPrime2Mean

fieldAverage fieldAverage1 write:
    Calculating averages

ddt2 ddt21 field dUdt2 average: 0.178565
ddt2 ddt21 field dpdt2 average: 0
multiply multiply1_scalar_scalar execute:
    Initialising k2 to k
    Performing k2 * k_0
multiply multiply1_vector_vector execute:
    Initialising U2 to U
    Performing U2 * U_0
multiply multiply1_scalar_vector execute:
    Initialising kU to k
    Performing kU * U
multiply multiply1_scalar_tensor execute:
    Initialising kU2 to k
    Performing kU2 * U2
momentum momentum1 write:
    Sum of Momentum (volume 0.0001)
        linear  : (9.20174e-10 7.16689e-13 0)


valueAverage: valueAverage1 averages:
    momentum_xMean: 9.20174e-10
    momentum_yMean: 7.16689e-13
    momentum_zMean: 0

Time = 0.01

Courant Number mean: 0.000539844 max: 0.00667001
smoothSolver:  Solving for Ux, Initial residual = 0.329094, Final residual = 2.36195e-06, No Iterations 4
smoothSolver:  Solving for Uy, Initial residual = 0.212439, Final residual = 1.72559e-06, No Iterations 4
GAMG:  Solving for p, Initial residual = 0.351238, Final residual = 0.0126777, No Iterations 2
time step continuity errors : sum local = 3.51923e-06, global = -2.7297e-21, cumulative = -6.36218e-21
GAMG:  Solving for p, Initial residual = 0.0193571, Final residual = 5.28182e-07, No Iterations 8
time step continuity errors : sum local = 1.69036e-10, global = 2.55004e-21, cumulative = -3.81214e-21
smoothSolver:  Solving for epsilon, Initial residual = 0.00720944, Final residual = 6.17228e-07, No Iterations 3
smoothSolver:  Solving for k, Initial residual = 0.447633, Final residual = 3.05252e-06, No Iterations 4
ExecutionTime = 0.02 s  ClockTime = 0 s

fieldAverage fieldAverage1 write:
    Calculating averages

ddt2 ddt21 field dUdt2 average: 0.0324228
ddt2 ddt21 field dpdt2 average: 0.00865233
multiply multiply1_scalar_scalar execute:
    Initialising k2 to k
    Performing k2 * k_0
multiply multiply1_vector_vector execute:
    Initialising U2 to U
    Performing U2 * U_0
multiply multiply1_scalar_vector execute:
    Initialising kU to k
    Performing kU * U
multiply multiply1_scalar_tensor execute:
    Initialising kU2 to k
    Performing kU2 * U2
momentum momentum1 write:
    Sum of Momentum (volume 0.0001)
        linear  : (1.6372e-09 9.27456e-12 0)


valueAverage: valueAverage1 averages:
    momentum_xMean: 1.27868e-09
    momentum_yMean: 4.99562e-12
    momentum_zMean: 0

Time = 0.015

Courant Number mean: 0.00098152 max: 0.0100611
smoothSolver:  Solving for Ux, Initial residual = 0.18103, Final residual = 1.29346e-06, No Iterations 4
smoothSolver:  Solving for Uy, Initial residual = 0.149661, Final residual = 1.41081e-06, No Iterations 4
GAMG:  Solving for p, Initial residual = 0.184144, Final residual = 0.00312293, No Iterations 2
time step continuity errors : sum local = 6.62104e-07, global = -9.74522e-22, cumulative = -4.78666e-21
GAMG:  Solving for p, Initial residual = 0.00508013, Final residual = 8.42029e-07, No Iterations 7
time step continuity errors : sum local = 2.03675e-10, global = 3.75592e-21, cumulative = -1.03074e-21
smoothSolver:  Solving for epsilon, Initial residual = 0.00660725, Final residual = 6.00299e-07, No Iterations 3
smoothSolver:  Solving for k, Initial residual = 0.281768, Final residual = 1.9029e-06, No Iterations 4
ExecutionTime = 0.02 s  ClockTime = 0 s

fieldAverage fieldAverage1 write:
    Calculating averages

ddt2 ddt21 field dUdt2 average: 0.0307224
ddt2 ddt21 field dpdt2 average: 0.000285768
multiply multiply1_scalar_scalar execute:
    Initialising k2 to k
    Performing k2 * k_0
multiply multiply1_vector_vector execute:
    Initialising U2 to U
    Performing U2 * U_0
multiply multiply1_scalar_vector execute:
    Initialising kU to k
    Performing kU * U
multiply multiply1_scalar_tensor execute:
    Initialising kU2 to k
    Performing kU2 * U2
momentum momentum1 write:
    Sum of Momentum (volume 0.0001)
        linear  : (2.2446e-09 1.47861e-11 0)


valueAverage: valueAverage1 averages:
    momentum_xMean: 1.60066e-09
    momentum_yMean: 8.25912e-12
    momentum_zMean: 0

Time = 0.02

Courant Number mean: 0.00140464 max: 0.012823
smoothSolver:  Solving for Ux, Initial residual = 0.129054, Final residual = 9.32925e-07, No Iterations 4
smoothSolver:  Solving for Uy, Initial residual = 0.12001, Final residual = 1.07145e-06, No Iterations 4
GAMG:  Solving for p, Initial residual = 0.0645693, Final residual = 0.00159668, No Iterations 2
time step continuity errors : sum local = 2.96372e-07, global = 1.20975e-21, cumulative = 1.79007e-22
GAMG:  Solving for p, Initial residual = 0.0022204, Final residual = 3.92538e-07, No Iterations 7
time step continuity errors : sum local = 8.18525e-11, global = 5.55374e-21, cumulative = 5.73275e-21
smoothSolver:  Solving for epsilon, Initial residual = 0.00606795, Final residual = 5.83191e-07, No Iterations 3
smoothSolver:  Solving for k, Initial residual = 0.20272, Final residual = 1.35832e-06, No Iterations 4
ExecutionTime = 0.02 s  ClockTime = 0 s

fieldAverage fieldAverage1 write:
    Calculating averages

ddt2 ddt21 field dUdt2 average: 0.0298571
ddt2 ddt21 field dpdt2 average: 5.07944e-05
multiply multiply1_scalar_scalar execute:
    Initialising k2 to k
    Performing k2 * k_0
multiply multiply1_vector_vector execute:
    Initialising U2 to U
    Performing U2 * U_0
multiply multiply1_scalar_vector execute:
    Initialising kU to k
    Performing kU * U
multiply multiply1_scalar_tensor execute:
    Initialising kU2 to k
    Performing kU2 * U2
momentum momentum1 write:
    Sum of Momentum (volume 0.0001)
        linear  : (2.8206e-09 6.41575e-12 0)


valueAverage: valueAverage1 averages:
    momentum_xMean: 1.90564e-09
    momentum_yMean: 7.79828e-12
    momentum_zMean: 0

Time = 0.025

Courant Number mean: 0.00182424 max: 0.0156815
smoothSolver:  Solving for Ux, Initial residual = 0.101472, Final residual = 7.29096e-07, No Iterations 4
smoothSolver:  Solving for Uy, Initial residual = 0.0966468, Final residual = 8.45463e-07, No Iterations 4
GAMG:  Solving for p, Initial residual = 0.0425704, Final residual = 0.000856422, No Iterations 2
time step continuity errors : sum local = 1.58632e-07, global = 4.78214e-21, cumulative = 1.05149e-20
GAMG:  Solving for p, Initial residual = 0.00107557, Final residual = 8.27107e-07, No Iterations 6
time step continuity errors : sum local = 1.77538e-10, global = -8.66213e-21, cumulative = 1.85276e-21
smoothSolver:  Solving for epsilon, Initial residual = 0.00558051, Final residual = 5.62248e-07, No Iterations 3
smoothSolver:  Solving for k, Initial residual = 0.156614, Final residual = 1.04593e-06, No Iterations 4
ExecutionTime = 0.02 s  ClockTime = 0 s

fieldAverage fieldAverage1 write:
    Calculating averages

ddt2 ddt21 field dUdt2 average: 0.0292797
ddt2 ddt21 field dpdt2 average: 6.7646e-06
multiply multiply1_scalar_scalar execute:
    Initialising k2 to k
    Performing k2 * k_0
multiply multiply1_vector_vector execute:
    Initialising U2 to U
    Performing U2 * U_0
multiply multiply1_scalar_vector execute:
    Initialising kU to k
    Performing kU * U
multiply multiply1_scalar_tensor execute:
    Initialising kU2 to k
    Performing kU2 * U2
momentum momentum1 write:
    Sum of Momentum (volume 0.0001)
        linear  : (3.38156e-09 4.77218e-11 0)


valueAverage: valueAverage1 averages:
    momentum_xMean: 2.20083e-09
    momentum_yMean: 1.5783e-11
    momentum_zMean: 0

Time = 0.03

Courant Number mean: 0.00223884 max: 0.018643
smoothSolver:  Solving for Ux, Initial residual = 0.0835021, Final residual = 9.7086e-06, No Iterations 3
smoothSolver:  Solving for Uy, Initial residual = 0.0817254, Final residual = 7.04594e-07, No Iterations 4
GAMG:  Solving for p, Initial residual = 0.0446826, Final residual = 0.00105073, No Iterations 2
time step continuity errors : sum local = 1.96577e-07, global = -2.65008e-20, cumulative = -2.4648e-20
GAMG:  Solving for p, Initial residual = 0.00128476, Final residual = 5.43443e-07, No Iterations 7
time step continuity errors : sum local = 1.18679e-10, global = -1.37209e-20, cumulative = -3.83689e-20
smoothSolver:  Solving for epsilon, Initial residual = 0.00514209, Final residual = 5.427e-07, No Iterations 3
smoothSolver:  Solving for k, Initial residual = 0.126233, Final residual = 8.44813e-07, No Iterations 4
ExecutionTime = 0.02 s  ClockTime = 0 s

fieldAverage fieldAverage1 write:
    Calculating averages

ddt2 ddt21 field dUdt2 average: 0.0290944
ddt2 ddt21 field dpdt2 average: 9.28962e-06
multiply multiply1_scalar_scalar execute:
    Initialising k2 to k
    Performing k2 * k_0
multiply multiply1_vector_vector execute:
    Initialising U2 to U
    Performing U2 * U_0
multiply multiply1_scalar_vector execute:
    Initialising kU to k
    Performing kU * U
multiply multiply1_scalar_tensor execute:
    Initialising kU2 to k
    Performing kU2 * U2
momentum momentum1 write:
    Sum of Momentum (volume 0.0001)
        linear  : (3.93732e-09 1.49034e-10 0)


valueAverage: valueAverage1 averages:
    momentum_xMean: 2.49024e-09
    momentum_yMean: 3.79915e-11
    momentum_zMean: 0

Time = 0.035

Courant Number mean: 0.00265252 max: 0.0217579
smoothSolver:  Solving for Ux, Initial residual = 0.0711636, Final residual = 8.25652e-06, No Iterations 3
smoothSolver:  Solving for Uy, Initial residual = 0.0703977, Final residual = 9.85404e-06, No Iterations 3
GAMG:  Solving for p, Initial residual = 0.0523156, Final residual = 0.00127969, No Iterations 2
time step continuity errors : sum local = 2.43826e-07, global = 2.70824e-20, cumulative = -1.12865e-20
GAMG:  Solving for p, Initial residual = 0.00156687, Final residual = 7.87294e-07, No Iterations 6
time step continuity errors : sum local = 1.78285e-10, global = 3.29554e-20, cumulative = 2.16689e-20
smoothSolver:  Solving for epsilon, Initial residual = 0.00498358, Final residual = 5.21715e-07, No Iterations 3
smoothSolver:  Solving for k, Initial residual = 0.104987, Final residual = 7.03851e-07, No Iterations 4
ExecutionTime = 0.02 s  ClockTime = 0 s

fieldAverage fieldAverage1 write:
    Calculating averages

ddt2 ddt21 field dUdt2 average: 0.0294184
ddt2 ddt21 field dpdt2 average: 1.27718e-05
multiply multiply1_scalar_scalar execute:
    Initialising k2 to k
    Performing k2 * k_0
multiply multiply1_vector_vector execute:
    Initialising U2 to U
    Performing U2 * U_0
multiply multiply1_scalar_vector execute:
    Initialising kU to k
    Performing kU * U
multiply multiply1_scalar_tensor execute:
    Initialising kU2 to k
    Performing kU2 * U2
momentum momentum1 write:
    Sum of Momentum (volume 0.0001)
        linear  : (4.4851e-09 2.56155e-10 0)


valueAverage: valueAverage1 averages:
    momentum_xMean: 2.77522e-09
    momentum_yMean: 6.91577e-11
    momentum_zMean: 0

Time = 0.04

Courant Number mean: 0.0030645 max: 0.0251094
smoothSolver:  Solving for Ux, Initial residual = 0.0622715, Final residual = 7.20643e-06, No Iterations 3
smoothSolver:  Solving for Uy, Initial residual = 0.0616048, Final residual = 8.59087e-06, No Iterations 3
GAMG:  Solving for p, Initial residual = 0.0642572, Final residual = 0.0015659, No Iterations 2
time step continuity errors : sum local = 3.08478e-07, global = 9.93651e-21, cumulative = 3.16054e-20
GAMG:  Solving for p, Initial residual = 0.00191606, Final residual = 8.09138e-07, No Iterations 7
time step continuity errors : sum local = 1.88068e-10, global = 1.39406e-20, cumulative = 4.5546e-20
smoothSolver:  Solving for epsilon, Initial residual = 0.00492528, Final residual = 4.99273e-07, No Iterations 3
smoothSolver:  Solving for k, Initial residual = 0.0893481, Final residual = 9.92769e-06, No Iterations 3
ExecutionTime = 0.02 s  ClockTime = 0 s

fieldAverage fieldAverage1 write:
    Calculating averages

ddt2 ddt21 field dUdt2 average: 0.0304882
ddt2 ddt21 field dpdt2 average: 2.37153e-05
multiply multiply1_scalar_scalar execute:
    Initialising k2 to k
    Performing k2 * k_0
multiply multiply1_vector_vector execute:
    Initialising U2 to U
    Performing U2 * U_0
multiply multiply1_scalar_vector execute:
    Initialising kU to k
    Performing kU * U
multiply multiply1_scalar_tensor execute:
    Initialising kU2 to k
    Performing kU2 * U2
momentum momentum1 write:
    Sum of Momentum (volume 0.0001)
        linear  : (5.02897e-09 4.36711e-10 0)


valueAverage: valueAverage1 averages:
    momentum_xMean: 3.05694e-09
    momentum_yMean: 1.15102e-10
    momentum_zMean: 0

Time = 0.045

Courant Number mean: 0.00347509 max: 0.0287498
smoothSolver:  Solving for Ux, Initial residual = 0.0557689, Final residual = 6.44206e-06, No Iterations 3
smoothSolver:  Solving for Uy, Initial residual = 0.0551154, Final residual = 7.6184e-06, No Iterations 3
GAMG:  Solving for p, Initial residual = 0.0726325, Final residual = 0.00172518, No Iterations 2
time step continuity errors : sum local = 3.59326e-07, global = 7.94093e-21, cumulative = 5.34869e-20
GAMG:  Solving for p, Initial residual = 0.00211809, Final residual = 4.69293e-07, No Iterations 8
time step continuity errors : sum local = 1.16711e-10, global = -2.20237e-21, cumulative = 5.12846e-20
smoothSolver:  Solving for epsilon, Initial residual = 0.00484096, Final residual = 4.76093e-07, No Iterations 3
smoothSolver:  Solving for k, Initial residual = 0.0773912, Final residual = 8.68303e-06, No Iterations 3
ExecutionTime = 0.02 s  ClockTime = 0 s

fieldAverage fieldAverage1 write:
    Calculating averages

ddt2 ddt21 field dUdt2 average: 0.0326229
ddt2 ddt21 field dpdt2 average: 3.86062e-05
multiply multiply1_scalar_scalar execute:
    Initialising k2 to k
    Performing k2 * k_0
multiply multiply1_vector_vector execute:
    Initialising U2 to U
    Performing U2 * U_0
multiply multiply1_scalar_vector execute:
    Initialising kU to k
    Performing kU * U
multiply multiply1_scalar_tensor execute:
    Initialising kU2 to k
    Performing kU2 * U2
momentum momentum1 write:
    Sum of Momentum (volume 0.0001)
        linear  : (5.57263e-09 7.40041e-10 0)


valueAverage: valueAverage1 averages:
    momentum_xMean: 3.33646e-09
    momentum_yMean: 1.84539e-10
    momentum_zMean: 0

Time = 0.05

Courant Number mean: 0.00388528 max: 0.0327548
smoothSolver:  Solving for Ux, Initial residual = 0.05102, Final residual = 5.8962e-06, No Iterations 3
smoothSolver:  Solving for Uy, Initial residual = 0.0502286, Final residual = 6.86292e-06, No Iterations 3
GAMG:  Solving for p, Initial residual = 0.0873318, Final residual = 0.00209796, No Iterations 2
time step continuity errors : sum local = 4.69607e-07, global = -6.06944e-21, cumulative = 4.52151e-20
GAMG:  Solving for p, Initial residual = 0.00261813, Final residual = 7.18442e-07, No Iterations 7
time step continuity errors : sum local = 1.92603e-10, global = -9.12484e-22, cumulative = 4.43026e-20
smoothSolver:  Solving for epsilon, Initial residual = 0.00473061, Final residual = 9.6103e-06, No Iterations 2
smoothSolver:  Solving for k, Initial residual = 0.0682286, Final residual = 7.72295e-06, No Iterations 3
ExecutionTime = 0.02 s  ClockTime = 0 s

fieldAverage fieldAverage1 write:
    Calculating averages

ddt2 ddt21 field dUdt2 average: 0.0365181
ddt2 ddt21 field dpdt2 average: 5.71014e-05
multiply multiply1_scalar_scalar execute:
    Initialising k2 to k
    Performing k2 * k_0
multiply multiply1_vector_vector execute:
    Initialising U2 to U
    Performing U2 * U_0
multiply multiply1_scalar_vector execute:
    Initialising kU to k
    Performing kU * U
multiply multiply1_scalar_tensor execute:
    Initialising kU2 to k
    Performing kU2 * U2
momentum momentum1 write:
    Sum of Momentum (volume 0.0001)
        linear  : (6.11579e-09 1.07674e-09 0)


valueAverage: valueAverage1 averages:
    momentum_xMean: 3.61439e-09
    momentum_yMean: 2.73759e-10
    momentum_zMean: 0

Time = 0.055

Courant Number mean: 0.00429936 max: 0.0372429
smoothSolver:  Solving for Ux, Initial residual = 0.0477576, Final residual = 5.54065e-06, No Iterations 3
smoothSolver:  Solving for Uy, Initial residual = 0.0463218, Final residual = 6.27592e-06, No Iterations 3
GAMG:  Solving for p, Initial residual = 0.0940815, Final residual = 0.0022041, No Iterations 2
time step continuity errors : sum local = 5.3761e-07, global = -1.85728e-20, cumulative = 2.57298e-20
GAMG:  Solving for p, Initial residual = 0.00285221, Final residual = 5.25743e-07, No Iterations 6
time step continuity errors : sum local = 1.54102e-10, global = -2.53066e-20, cumulative = 4.23284e-22
smoothSolver:  Solving for epsilon, Initial residual = 0.00459707, Final residual = 9.16284e-06, No Iterations 2
smoothSolver:  Solving for k, Initial residual = 0.0613484, Final residual = 6.96174e-06, No Iterations 3
ExecutionTime = 0.02 s  ClockTime = 0 s

fieldAverage fieldAverage1 write:
    Calculating averages

ddt2 ddt21 field dUdt2 average: 0.0431734
ddt2 ddt21 field dpdt2 average: 9.59804e-05
multiply multiply1_scalar_scalar execute:
    Initialising k2 to k
    Performing k2 * k_0
multiply multiply1_vector_vector execute:
    Initialising U2 to U
    Performing U2 * U_0
multiply multiply1_scalar_vector execute:
    Initialising kU to k
    Performing kU * U
multiply multiply1_scalar_tensor execute:
    Initialising kU2 to k
    Performing kU2 * U2
momentum momentum1 write:
    Sum of Momentum (volume 0.0001)
        linear  : (6.65588e-09 1.46375e-09 0)


valueAverage: valueAverage1 averages:
    momentum_xMean: 3.89089e-09
    momentum_yMean: 3.8194e-10
    momentum_zMean: 0

Time = 0.06

Courant Number mean: 0.00472251 max: 0.0423753
smoothSolver:  Solving for Ux, Initial residual = 0.045402, Final residual = 5.38972e-06, No Iterations 3
smoothSolver:  Solving for Uy, Initial residual = 0.0435053, Final residual = 5.89265e-06, No Iterations 3
GAMG:  Solving for p, Initial residual = 0.103142, Final residual = 0.00244907, No Iterations 2
time step continuity errors : sum local = 6.8339e-07, global = -2.49641e-20, cumulative = -2.45408e-20
GAMG:  Solving for p, Initial residual = 0.0030719, Final residual = 5.65065e-07, No Iterations 7
time step continuity errors : sum local = 1.97518e-10, global = 1.51116e-20, cumulative = -9.42921e-21
smoothSolver:  Solving for epsilon, Initial residual = 0.00444484, Final residual = 8.69771e-06, No Iterations 2
smoothSolver:  Solving for k, Initial residual = 0.0555901, Final residual = 6.33901e-06, No Iterations 3
ExecutionTime = 0.03 s  ClockTime = 0 s

fieldAverage fieldAverage1 write:
    Calculating averages

ddt2 ddt21 field dUdt2 average: 0.053437
ddt2 ddt21 field dpdt2 average: 0.000149562
multiply multiply1_scalar_scalar execute:
    Initialising k2 to k
    Performing k2 * k_0
multiply multiply1_vector_vector execute:
    Initialising U2 to U
    Performing U2 * U_0
multiply multiply1_scalar_vector execute:
    Initialising kU to k
    Performing kU * U
multiply multiply1_scalar_tensor execute:
    Initialising kU2 to k
    Performing kU2 * U2
momentum momentum1 write:
    Sum of Momentum (volume 0.0001)
        linear  : (7.19109e-09 1.96234e-09 0)


valueAverage: valueAverage1 averages:
    momentum_xMean: 4.16591e-09
    momentum_yMean: 5.1364e-10
    momentum_zMean: 0

Time = 0.065

Courant Number mean: 0.00515634 max: 0.0482722
smoothSolver:  Solving for Ux, Initial residual = 0.043707, Final residual = 5.42299e-06, No Iterations 3
smoothSolver:  Solving for Uy, Initial residual = 0.0412407, Final residual = 5.58599e-06, No Iterations 3
GAMG:  Solving for p, Initial residual = 0.104459, Final residual = 0.00248496, No Iterations 2
time step continuity errors : sum local = 8.36719e-07, global = -1.46308e-20, cumulative = -2.406e-20
GAMG:  Solving for p, Initial residual = 0.00315156, Final residual = 8.53017e-07, No Iterations 7
time step continuity errors : sum local = 3.6037e-10, global = -3.90584e-20, cumulative = -6.31184e-20
smoothSolver:  Solving for epsilon, Initial residual = 0.00428656, Final residual = 8.26507e-06, No Iterations 2
smoothSolver:  Solving for k, Initial residual = 0.0506786, Final residual = 5.808e-06, No Iterations 3
ExecutionTime = 0.03 s  ClockTime = 0 s

fieldAverage fieldAverage1 write:
    Calculating averages

ddt2 ddt21 field dUdt2 average: 0.0690285
ddt2 ddt21 field dpdt2 average: 0.000228441
multiply multiply1_scalar_scalar execute:
    Initialising k2 to k
    Performing k2 * k_0
multiply multiply1_vector_vector execute:
    Initialising U2 to U
    Performing U2 * U_0
multiply multiply1_scalar_vector execute:
    Initialising kU to k
    Performing kU * U
multiply multiply1_scalar_tensor execute:
    Initialising kU2 to k
    Performing kU2 * U2
momentum momentum1 write:
    Sum of Momentum (volume 0.0001)
        linear  : (7.72977e-09 2.61019e-09 0)


valueAverage: valueAverage1 averages:
    momentum_xMean: 4.44005e-09
    momentum_yMean: 6.74913e-10
    momentum_zMean: 0

Time = 0.07

Courant Number mean: 0.0056027 max: 0.055108
smoothSolver:  Solving for Ux, Initial residual = 0.0410406, Final residual = 5.38961e-06, No Iterations 3
smoothSolver:  Solving for Uy, Initial residual = 0.0391957, Final residual = 5.33375e-06, No Iterations 3
GAMG:  Solving for p, Initial residual = 0.0758554, Final residual = 0.00178456, No Iterations 2
time step continuity errors : sum local = 7.10628e-07, global = -4.36338e-20, cumulative = -1.06752e-19
GAMG:  Solving for p, Initial residual = 0.00237707, Final residual = 7.96509e-07, No Iterations 7
time step continuity errors : sum local = 3.87995e-10, global = -4.49986e-20, cumulative = -1.51751e-19
smoothSolver:  Solving for epsilon, Initial residual = 0.0041259, Final residual = 7.82529e-06, No Iterations 2
smoothSolver:  Solving for k, Initial residual = 0.0464397, Final residual = 5.37149e-06, No Iterations 3
ExecutionTime = 0.03 s  ClockTime = 0 s

fieldAverage fieldAverage1 write:
    Calculating averages

ddt2 ddt21 field dUdt2 average: 0.076288
ddt2 ddt21 field dpdt2 average: 0.000170913
multiply multiply1_scalar_scalar execute:
    Initialising k2 to k
    Performing k2 * k_0
multiply multiply1_vector_vector execute:
    Initialising U2 to U
    Performing U2 * U_0
multiply multiply1_scalar_vector execute:
    Initialising kU to k
    Performing kU * U
multiply multiply1_scalar_tensor execute:
    Initialising kU2 to k
    Performing kU2 * U2
momentum momentum1 write:
    Sum of Momentum (volume 0.0001)
        linear  : (8.31627e-09 3.40317e-09 0)


valueAverage: valueAverage1 averages:
    momentum_xMean: 4.71692e-09
    momentum_yMean: 8.69789e-10
    momentum_zMean: 0

Time = 0.075

Courant Number mean: 0.00605556 max: 0.0624058
smoothSolver:  Solving for Ux, Initial residual = 0.0381854, Final residual = 5.32437e-06, No Iterations 3
smoothSolver:  Solving for Uy, Initial residual = 0.0368618, Final residual = 5.06273e-06, No Iterations 3
GAMG:  Solving for p, Initial residual = 0.0584034, Final residual = 0.00132796, No Iterations 2
time step continuity errors : sum local = 5.98511e-07, global = -2.25407e-20, cumulative = -1.74291e-19
GAMG:  Solving for p, Initial residual = 0.00194554, Final residual = 9.89799e-07, No Iterations 7
time step continuity errors : sum local = 5.34292e-10, global = 2.61699e-20, cumulative = -1.48122e-19
smoothSolver:  Solving for epsilon, Initial residual = 0.00396808, Final residual = 7.4024e-06, No Iterations 2
smoothSolver:  Solving for k, Initial residual = 0.0427452, Final residual = 5.00866e-06, No Iterations 3
ExecutionTime = 0.03 s  ClockTime = 0 s

fieldAverage fieldAverage1 write:
    Calculating averages

ddt2 ddt21 field dUdt2 average: 0.0774711
ddt2 ddt21 field dpdt2 average: 0.000149281
multiply multiply1_scalar_scalar execute:
    Initialising k2 to k
    Performing k2 * k_0
multiply multiply1_vector_vector execute:
    Initialising U2 to U
    Performing U2 * U_0
multiply multiply1_scalar_vector execute:
    Initialising kU to k
    Performing kU * U
multiply multiply1_scalar_tensor execute:
    Initialising kU2 to k
    Performing kU2 * U2
momentum momentum1 write:
    Sum of Momentum (volume 0.0001)
        linear  : (9.01625e-09 4.37502e-09 0)


valueAverage: valueAverage1 averages:
    momentum_xMean: 5.00355e-09
    momentum_yMean: 1.10347e-09
    momentum_zMean: 0

Time = 0.08

Courant Number mean: 0.00651322 max: 0.0698658
smoothSolver:  Solving for Ux, Initial residual = 0.0355376, Final residual = 5.27877e-06, No Iterations 3
smoothSolver:  Solving for Uy, Initial residual = 0.0344844, Final residual = 4.77525e-06, No Iterations 3
GAMG:  Solving for p, Initial residual = 0.0558437, Final residual = 0.00121418, No Iterations 2
time step continuity errors : sum local = 6.05961e-07, global = -4.31168e-21, cumulative = -1.52433e-19
GAMG:  Solving for p, Initial residual = 0.00192229, Final residual = 9.25504e-07, No Iterations 7
time step continuity errors : sum local = 5.52159e-10, global = -1.84849e-20, cumulative = -1.70918e-19
smoothSolver:  Solving for epsilon, Initial residual = 0.0038192, Final residual = 7.01136e-06, No Iterations 2
smoothSolver:  Solving for k, Initial residual = 0.0394991, Final residual = 4.71962e-06, No Iterations 3
ExecutionTime = 0.03 s  ClockTime = 0 s

fieldAverage fieldAverage1 write:
    Calculating averages

ddt2 ddt21 field dUdt2 average: 0.0768387
ddt2 ddt21 field dpdt2 average: 0.000183336
multiply multiply1_scalar_scalar execute:
    Initialising k2 to k
    Performing k2 * k_0
multiply multiply1_vector_vector execute:
    Initialising U2 to U
    Performing U2 * U_0
multiply multiply1_scalar_vector execute:
    Initialising kU to k
    Performing kU * U
multiply multiply1_scalar_tensor execute:
    Initialising kU2 to k
    Performing kU2 * U2
momentum momentum1 write:
    Sum of Momentum (volume 0.0001)
        linear  : (9.87296e-09 5.51997e-09 0)


valueAverage: valueAverage1 averages:
    momentum_xMean: 5.30788e-09
    momentum_yMean: 1.3795e-09
    momentum_zMean: 0

Time = 0.085

Courant Number mean: 0.00697368 max: 0.0773291
smoothSolver:  Solving for Ux, Initial residual = 0.0331255, Final residual = 5.23106e-06, No Iterations 3
smoothSolver:  Solving for Uy, Initial residual = 0.0322328, Final residual = 4.49118e-06, No Iterations 3
GAMG:  Solving for p, Initial residual = 0.0523387, Final residual = 0.00109438, No Iterations 2
time step continuity errors : sum local = 6.02601e-07, global = -2.93184e-20, cumulative = -2.00237e-19
GAMG:  Solving for p, Initial residual = 0.00185352, Final residual = 9.04988e-07, No Iterations 7
time step continuity errors : sum local = 5.9577e-10, global = -5.3896e-20, cumulative = -2.54133e-19
smoothSolver:  Solving for epsilon, Initial residual = 0.00367442, Final residual = 6.6591e-06, No Iterations 2
smoothSolver:  Solving for k, Initial residual = 0.0366436, Final residual = 4.44578e-06, No Iterations 3
ExecutionTime = 0.03 s  ClockTime = 0 s

fieldAverage fieldAverage1 write:
    Calculating averages

ddt2 ddt21 field dUdt2 average: 0.0744527
ddt2 ddt21 field dpdt2 average: 0.000220516
multiply multiply1_scalar_scalar execute:
    Initialising k2 to k
    Performing k2 * k_0
multiply multiply1_vector_vector execute:
    Initialising U2 to U
    Performing U2 * U_0
multiply multiply1_scalar_vector execute:
    Initialising kU to k
    Performing kU * U
multiply multiply1_scalar_tensor execute:
    Initialising kU2 to k
    Performing kU2 * U2
momentum momentum1 write:
    Sum of Momentum (volume 0.0001)
        linear  : (1.09051e-08 6.82927e-09 0)


valueAverage: valueAverage1 averages:
    momentum_xMean: 5.63713e-09
    momentum_yMean: 1.70008e-09
    momentum_zMean: 0

Time = 0.09

Courant Number mean: 0.00743473 max: 0.0846218
smoothSolver:  Solving for Ux, Initial residual = 0.0308242, Final residual = 5.14441e-06, No Iterations 3
smoothSolver:  Solving for Uy, Initial residual = 0.0302574, Final residual = 4.21038e-06, No Iterations 3
GAMG:  Solving for p, Initial residual = 0.0504844, Final residual = 0.000977344, No Iterations 2
time step continuity errors : sum local = 5.91358e-07, global = -8.31834e-21, cumulative = -2.62451e-19
GAMG:  Solving for p, Initial residual = 0.0017588, Final residual = 8.93311e-07, No Iterations 7
time step continuity errors : sum local = 6.43971e-10, global = 4.38716e-20, cumulative = -2.18579e-19
smoothSolver:  Solving for epsilon, Initial residual = 0.00352807, Final residual = 6.31158e-06, No Iterations 2
smoothSolver:  Solving for k, Initial residual = 0.0340792, Final residual = 4.20746e-06, No Iterations 3
ExecutionTime = 0.03 s  ClockTime = 0 s

fieldAverage fieldAverage1 write:
    Calculating averages

ddt2 ddt21 field dUdt2 average: 0.0707912
ddt2 ddt21 field dpdt2 average: 0.000240258
multiply multiply1_scalar_scalar execute:
    Initialising k2 to k
    Performing k2 * k_0
multiply multiply1_vector_vector execute:
    Initialising U2 to U
    Performing U2 * U_0
multiply multiply1_scalar_vector execute:
    Initialising kU to k
    Performing kU * U
multiply multiply1_scalar_tensor execute:
    Initialising kU2 to k
    Performing kU2 * U2
momentum momentum1 write:
    Sum of Momentum (volume 0.0001)
        linear  : (1.21102e-08 8.29657e-09 0)


valueAverage: valueAverage1 averages:
    momentum_xMean: 5.99675e-09
    momentum_yMean: 2.06655e-09
    momentum_zMean: 0

Time = 0.095

Courant Number mean: 0.00789373 max: 0.0915929
smoothSolver:  Solving for Ux, Initial residual = 0.0286172, Final residual = 4.98392e-06, No Iterations 3
smoothSolver:  Solving for Uy, Initial residual = 0.0285714, Final residual = 4.01528e-06, No Iterations 3
GAMG:  Solving for p, Initial residual = 0.0476799, Final residual = 0.000886204, No Iterations 2
time step continuity errors : sum local = 5.8263e-07, global = 2.09483e-20, cumulative = -1.97631e-19
GAMG:  Solving for p, Initial residual = 0.00168386, Final residual = 7.93928e-07, No Iterations 7
time step continuity errors : sum local = 6.19123e-10, global = -4.69063e-20, cumulative = -2.44537e-19
smoothSolver:  Solving for epsilon, Initial residual = 0.00334773, Final residual = 5.91448e-06, No Iterations 2
smoothSolver:  Solving for k, Initial residual = 0.0317622, Final residual = 3.99484e-06, No Iterations 3
ExecutionTime = 0.03 s  ClockTime = 0 s

fieldAverage fieldAverage1 write:
    Calculating averages

ddt2 ddt21 field dUdt2 average: 0.0661588
ddt2 ddt21 field dpdt2 average: 0.000245341
multiply multiply1_scalar_scalar execute:
    Initialising k2 to k
    Performing k2 * k_0
multiply multiply1_vector_vector execute:
    Initialising U2 to U
    Performing U2 * U_0
multiply multiply1_scalar_vector execute:
    Initialising kU to k
    Performing kU * U
multiply multiply1_scalar_tensor execute:
    Initialising kU2 to k
    Performing kU2 * U2
momentum momentum1 write:
    Sum of Momentum (volume 0.0001)
        linear  : (1.3445e-08 9.89661e-09 0)


valueAverage: valueAverage1 averages:
    momentum_xMean: 6.38876e-09
    momentum_yMean: 2.47866e-09
    momentum_zMean: 0

Time = 0.1

Courant Number mean: 0.00834759 max: 0.0981097
smoothSolver:  Solving for Ux, Initial residual = 0.0265637, Final residual = 4.80686e-06, No Iterations 3
smoothSolver:  Solving for Uy, Initial residual = 0.0273358, Final residual = 4.03806e-06, No Iterations 3
GAMG:  Solving for p, Initial residual = 0.043397, Final residual = 0.000788929, No Iterations 2
time step continuity errors : sum local = 5.56525e-07, global = -3.48863e-20, cumulative = -2.79424e-19
GAMG:  Solving for p, Initial residual = 0.00156107, Final residual = 8.56513e-07, No Iterations 7
time step continuity errors : sum local = 7.1144e-10, global = -1.11256e-20, cumulative = -2.90549e-19
smoothSolver:  Solving for epsilon, Initial residual = 0.0031759, Final residual = 5.5506e-06, No Iterations 2
smoothSolver:  Solving for k, Initial residual = 0.0296802, Final residual = 3.80109e-06, No Iterations 3
ExecutionTime = 0.03 s  ClockTime = 0 s

fieldAverage fieldAverage1 write:
    Calculating averages

ddt2 ddt21 field dUdt2 average: 0.0609888
ddt2 ddt21 field dpdt2 average: 0.00023391
multiply multiply1_scalar_scalar execute:
    Initialising k2 to k
    Performing k2 * k_0
multiply multiply1_vector_vector execute:
    Initialising U2 to U
    Performing U2 * U_0
multiply multiply1_scalar_vector execute:
    Initialising kU to k
    Performing kU * U
multiply multiply1_scalar_tensor execute:
    Initialising kU2 to k
    Performing kU2 * U2
momentum momentum1 write:
    Sum of Momentum (volume 0.0001)
        linear  : (1.48696e-08 1.1662e-08 0)


    functionObjects::streamFunction streamFunction1 calculating stream-function
        Zero face: patch: 0 face: 0
valueAverage: valueAverage1 averages:
    momentum_xMean: 6.8128e-09
    momentum_yMean: 2.93783e-09
    momentum_zMean: 0

Time = 0.105

Courant Number mean: 0.00879412 max: 0.104068
smoothSolver:  Solving for Ux, Initial residual = 0.0246704, Final residual = 4.57975e-06, No Iterations 3
smoothSolver:  Solving for Uy, Initial residual = 0.0262567, Final residual = 4.06674e-06, No Iterations 3
GAMG:  Solving for p, Initial residual = 0.0404114, Final residual = 0.000741318, No Iterations 2
time step continuity errors : sum local = 5.54546e-07, global = 4.2331e-20, cumulative = -2.48218e-19
GAMG:  Solving for p, Initial residual = 0.00153762, Final residual = 6.24117e-07, No Iterations 7
time step continuity errors : sum local = 5.49471e-10, global = -2.69557e-20, cumulative = -2.75174e-19
smoothSolver:  Solving for epsilon, Initial residual = 0.00301497, Final residual = 5.21879e-06, No Iterations 2
smoothSolver:  Solving for k, Initial residual = 0.0278347, Final residual = 3.62696e-06, No Iterations 3
ExecutionTime = 0.03 s  ClockTime = 0 s

fieldAverage fieldAverage1 write:
    Calculating averages

ddt2 ddt21 field dUdt2 average: 0.0557316
ddt2 ddt21 field dpdt2 average: 0.000214174
multiply multiply1_scalar_scalar execute:
    Initialising k2 to k
    Performing k2 * k_0
multiply multiply1_vector_vector execute:
    Initialising U2 to U
    Performing U2 * U_0
multiply multiply1_scalar_vector execute:
    Initialising kU to k
    Performing kU * U
multiply multiply1_scalar_tensor execute:
    Initialising kU2 to k
    Performing kU2 * U2
momentum momentum1 write:
    Sum of Momentum (volume 0.0001)
        linear  : (1.63346e-08 1.34472e-08 0)


valueAverage: valueAverage1 averages:
    momentum_xMean: 7.26622e-09
    momentum_yMean: 3.43827e-09
    momentum_zMean: 0

Time = 0.11

Courant Number mean: 0.00923386 max: 0.109401
smoothSolver:  Solving for Ux, Initial residual = 0.0229497, Final residual = 4.31166e-06, No Iterations 3
smoothSolver:  Solving for Uy, Initial residual = 0.0251665, Final residual = 4.08072e-06, No Iterations 3
GAMG:  Solving for p, Initial residual = 0.0364536, Final residual = 0.000644718, No Iterations 2
time step continuity errors : sum local = 5.07155e-07, global = 1.31315e-21, cumulative = -2.73861e-19
GAMG:  Solving for p, Initial residual = 0.0014319, Final residual = 4.64892e-07, No Iterations 7
time step continuity errors : sum local = 4.294e-10, global = -2.60252e-20, cumulative = -2.99886e-19
smoothSolver:  Solving for epsilon, Initial residual = 0.00286394, Final residual = 4.9144e-06, No Iterations 2
smoothSolver:  Solving for k, Initial residual = 0.0261692, Final residual = 3.47021e-06, No Iterations 3
ExecutionTime = 0.03 s  ClockTime = 0 s

fieldAverage fieldAverage1 write:
    Calculating averages

ddt2 ddt21 field dUdt2 average: 0.0506799
ddt2 ddt21 field dpdt2 average: 0.000188256
multiply multiply1_scalar_scalar execute:
    Initialising k2 to k
    Performing k2 * k_0
multiply multiply1_vector_vector execute:
    Initialising U2 to U
    Performing U2 * U_0
multiply multiply1_scalar_vector execute:
    Initialising kU to k
    Performing kU * U
multiply multiply1_scalar_tensor execute:
    Initialising kU2 to k
    Performing kU2 * U2
momentum momentum1 write:
    Sum of Momentum (volume 0.0001)
        linear  : (1.77491e-08 1.52206e-08 0)


valueAverage: valueAverage1 averages:
    momentum_xMean: 7.74272e-09
    momentum_yMean: 3.97383e-09
    momentum_zMean: 0

Time = 0.115

Courant Number mean: 0.00966621 max: 0.114083
smoothSolver:  Solving for Ux, Initial residual = 0.0219473, Final residual = 4.16775e-06, No Iterations 3
smoothSolver:  Solving for Uy, Initial residual = 0.0241272, Final residual = 4.08441e-06, No Iterations 3
GAMG:  Solving for p, Initial residual = 0.0329037, Final residual = 0.000570188, No Iterations 2
time step continuity errors : sum local = 4.66882e-07, global = -2.77106e-21, cumulative = -3.02657e-19
GAMG:  Solving for p, Initial residual = 0.001355, Final residual = 7.87102e-07, No Iterations 6
time step continuity errors : sum local = 7.51542e-10, global = -8.11671e-21, cumulative = -3.10774e-19
smoothSolver:  Solving for epsilon, Initial residual = 0.00272027, Final residual = 4.63089e-06, No Iterations 2
smoothSolver:  Solving for k, Initial residual = 0.0246533, Final residual = 3.31769e-06, No Iterations 3
ExecutionTime = 0.04 s  ClockTime = 0 s

fieldAverage fieldAverage1 write:
    Calculating averages

ddt2 ddt21 field dUdt2 average: 0.04608
ddt2 ddt21 field dpdt2 average: 0.000166731
multiply multiply1_scalar_scalar execute:
    Initialising k2 to k
    Performing k2 * k_0
multiply multiply1_vector_vector execute:
    Initialising U2 to U
    Performing U2 * U_0
multiply multiply1_scalar_vector execute:
    Initialising kU to k
    Performing kU * U
multiply multiply1_scalar_tensor execute:
    Initialising kU2 to k
    Performing kU2 * U2
momentum momentum1 write:
    Sum of Momentum (volume 0.0001)
        linear  : (1.90652e-08 1.6933e-08 0)


valueAverage: valueAverage1 averages:
    momentum_xMean: 8.235e-09
    momentum_yMean: 4.53727e-09
    momentum_zMean: 0

Time = 0.12

Courant Number mean: 0.0100899 max: 0.118126
smoothSolver:  Solving for Ux, Initial residual = 0.0209559, Final residual = 4.00429e-06, No Iterations 3
smoothSolver:  Solving for Uy, Initial residual = 0.0230832, Final residual = 4.05872e-06, No Iterations 3
GAMG:  Solving for p, Initial residual = 0.0292324, Final residual = 0.000500997, No Iterations 2
time step continuity errors : sum local = 4.23276e-07, global = -4.30134e-20, cumulative = -3.53787e-19
GAMG:  Solving for p, Initial residual = 0.00126497, Final residual = 6.70838e-07, No Iterations 6
time step continuity errors : sum local = 6.62496e-10, global = -3.81951e-20, cumulative = -3.91982e-19
smoothSolver:  Solving for epsilon, Initial residual = 0.0025859, Final residual = 4.36986e-06, No Iterations 2
smoothSolver:  Solving for k, Initial residual = 0.0233112, Final residual = 3.14267e-06, No Iterations 3
ExecutionTime = 0.04 s  ClockTime = 0 s

fieldAverage fieldAverage1 write:
    Calculating averages

ddt2 ddt21 field dUdt2 average: 0.0420941
ddt2 ddt21 field dpdt2 average: 0.000150513
multiply multiply1_scalar_scalar execute:
    Initialising k2 to k
    Performing k2 * k_0
multiply multiply1_vector_vector execute:
    Initialising U2 to U
    Performing U2 * U_0
multiply multiply1_scalar_vector execute:
    Initialising kU to k
    Performing kU * U
multiply multiply1_scalar_tensor execute:
    Initialising kU2 to k
    Performing kU2 * U2
momentum momentum1 write:
    Sum of Momentum (volume 0.0001)
        linear  : (2.02479e-08 1.85526e-08 0)


valueAverage: valueAverage1 averages:
    momentum_xMean: 8.73554e-09
    momentum_yMean: 5.12125e-09
    momentum_zMean: 0

Time = 0.125

Courant Number mean: 0.0105058 max: 0.12157
smoothSolver:  Solving for Ux, Initial residual = 0.019952, Final residual = 3.81589e-06, No Iterations 3
smoothSolver:  Solving for Uy, Initial residual = 0.0220425, Final residual = 4.02981e-06, No Iterations 3
GAMG:  Solving for p, Initial residual = 0.0264397, Final residual = 0.000447209, No Iterations 2
time step continuity errors : sum local = 3.86646e-07, global = -2.11758e-20, cumulative = -4.13158e-19
GAMG:  Solving for p, Initial residual = 0.00118853, Final residual = 5.83648e-07, No Iterations 6
time step continuity errors : sum local = 5.89045e-10, global = -2.67283e-20, cumulative = -4.39886e-19
smoothSolver:  Solving for epsilon, Initial residual = 0.00246653, Final residual = 4.13676e-06, No Iterations 2
smoothSolver:  Solving for k, Initial residual = 0.0220751, Final residual = 3.022e-06, No Iterations 3
ExecutionTime = 0.04 s  ClockTime = 0 s

fieldAverage fieldAverage1 write:
    Calculating averages

ddt2 ddt21 field dUdt2 average: 0.0384836
ddt2 ddt21 field dpdt2 average: 0.000134744
multiply multiply1_scalar_scalar execute:
    Initialising k2 to k
    Performing k2 * k_0
multiply multiply1_vector_vector execute:
    Initialising U2 to U
    Performing U2 * U_0
multiply multiply1_scalar_vector execute:
    Initialising kU to k
    Performing kU * U
multiply multiply1_scalar_tensor execute:
    Initialising kU2 to k
    Performing kU2 * U2
momentum momentum1 write:
    Sum of Momentum (volume 0.0001)
        linear  : (2.1273e-08 2.00421e-08 0)


    functionObjects::streamFunction streamFunction1 calculating stream-function
        Zero face: patch: 0 face: 0
valueAverage: valueAverage1 averages:
    momentum_xMean: 9.23703e-09
    momentum_yMean: 5.71808e-09
    momentum_zMean: 0

Time = 0.13

Courant Number mean: 0.0109142 max: 0.124485
smoothSolver:  Solving for Ux, Initial residual = 0.0189259, Final residual = 3.59826e-06, No Iterations 3
smoothSolver:  Solving for Uy, Initial residual = 0.0209775, Final residual = 3.93422e-06, No Iterations 3
GAMG:  Solving for p, Initial residual = 0.0235829, Final residual = 0.000393808, No Iterations 2
time step continuity errors : sum local = 3.482e-07, global = 6.66914e-20, cumulative = -3.73195e-19
GAMG:  Solving for p, Initial residual = 0.00108879, Final residual = 6.78378e-07, No Iterations 6
time step continuity errors : sum local = 6.96315e-10, global = 3.72852e-20, cumulative = -3.3591e-19
smoothSolver:  Solving for epsilon, Initial residual = 0.00235024, Final residual = 3.91806e-06, No Iterations 2
smoothSolver:  Solving for k, Initial residual = 0.0209368, Final residual = 2.90972e-06, No Iterations 3
ExecutionTime = 0.04 s  ClockTime = 0 s

fieldAverage fieldAverage1 write:
    Calculating averages

ddt2 ddt21 field dUdt2 average: 0.0351012
ddt2 ddt21 field dpdt2 average: 0.000114449
multiply multiply1_scalar_scalar execute:
    Initialising k2 to k
    Performing k2 * k_0
multiply multiply1_vector_vector execute:
    Initialising U2 to U
    Performing U2 * U_0
multiply multiply1_scalar_vector execute:
    Initialising kU to k
    Performing kU * U
multiply multiply1_scalar_tensor execute:
    Initialising kU2 to k
    Performing kU2 * U2
momentum momentum1 write:
    Sum of Momentum (volume 0.0001)
        linear  : (2.2169e-08 2.13878e-08 0)


valueAverage: valueAverage1 averages:
    momentum_xMean: 9.73442e-09
    momentum_yMean: 6.32076e-09
    momentum_zMean: 0

Time = 0.135

Courant Number mean: 0.0113153 max: 0.126961
smoothSolver:  Solving for Ux, Initial residual = 0.0179591, Final residual = 3.3812e-06, No Iterations 3
smoothSolver:  Solving for Uy, Initial residual = 0.0199622, Final residual = 3.80387e-06, No Iterations 3
GAMG:  Solving for p, Initial residual = 0.0209912, Final residual = 0.00195478, No Iterations 1
time step continuity errors : sum local = 1.75019e-06, global = 5.17815e-20, cumulative = -2.84128e-19
GAMG:  Solving for p, Initial residual = 0.00252007, Final residual = 7.32478e-07, No Iterations 7
time step continuity errors : sum local = 7.59975e-10, global = -8.25733e-20, cumulative = -3.66701e-19
smoothSolver:  Solving for epsilon, Initial residual = 0.00223972, Final residual = 3.72187e-06, No Iterations 2
smoothSolver:  Solving for k, Initial residual = 0.0198856, Final residual = 2.80635e-06, No Iterations 3
ExecutionTime = 0.04 s  ClockTime = 0 s

fieldAverage fieldAverage1 write:
    Calculating averages

ddt2 ddt21 field dUdt2 average: 0.0322603
ddt2 ddt21 field dpdt2 average: 9.85738e-05
multiply multiply1_scalar_scalar execute:
    Initialising k2 to k
    Performing k2 * k_0
multiply multiply1_vector_vector execute:
    Initialising U2 to U
    Performing U2 * U_0
multiply multiply1_scalar_vector execute:
    Initialising kU to k
    Performing kU * U
multiply multiply1_scalar_tensor execute:
    Initialising kU2 to k
    Performing kU2 * U2
momentum momentum1 write:
    Sum of Momentum (volume 0.0001)
        linear  : (2.29734e-08 2.2628e-08 0)


valueAverage: valueAverage1 averages:
    momentum_xMean: 1.02247e-08
    momentum_yMean: 6.92474e-09
    momentum_zMean: 0

Time = 0.14

Courant Number mean: 0.0117102 max: 0.129085
smoothSolver:  Solving for Ux, Initial residual = 0.0170356, Final residual = 3.17516e-06, No Iterations 3
smoothSolver:  Solving for Uy, Initial residual = 0.0189913, Final residual = 3.65834e-06, No Iterations 3
GAMG:  Solving for p, Initial residual = 0.018253, Final residual = 0.00168637, No Iterations 1
time step continuity errors : sum local = 1.53657e-06, global = -4.25998e-21, cumulative = -3.70961e-19
GAMG:  Solving for p, Initial residual = 0.00219252, Final residual = 6.61725e-07, No Iterations 7
time step continuity errors : sum local = 6.96538e-10, global = -1.065e-20, cumulative = -3.81611e-19
smoothSolver:  Solving for epsilon, Initial residual = 0.00213579, Final residual = 3.53233e-06, No Iterations 2
smoothSolver:  Solving for k, Initial residual = 0.0189107, Final residual = 2.71832e-06, No Iterations 3
ExecutionTime = 0.04 s  ClockTime = 0 s

fieldAverage fieldAverage1 write:
    Calculating averages

ddt2 ddt21 field dUdt2 average: 0.0299112
ddt2 ddt21 field dpdt2 average: 8.46462e-05
multiply multiply1_scalar_scalar execute:
    Initialising k2 to k
    Performing k2 * k_0
multiply multiply1_vector_vector execute:
    Initialising U2 to U
    Performing U2 * U_0
multiply multiply1_scalar_vector execute:
    Initialising kU to k
    Performing kU * U
multiply multiply1_scalar_tensor execute:
    Initialising kU2 to k
    Performing kU2 * U2
momentum momentum1 write:
    Sum of Momentum (volume 0.0001)
        linear  : (2.37208e-08 2.37145e-08 0)


valueAverage: valueAverage1 averages:
    momentum_xMean: 1.07067e-08
    momentum_yMean: 7.52437e-09
    momentum_zMean: 0

Time = 0.145

Courant Number mean: 0.0121013 max: 0.13094
smoothSolver:  Solving for Ux, Initial residual = 0.0162156, Final residual = 2.98542e-06, No Iterations 3
smoothSolver:  Solving for Uy, Initial residual = 0.0180674, Final residual = 3.50383e-06, No Iterations 3
GAMG:  Solving for p, Initial residual = 0.0158197, Final residual = 0.00151486, No Iterations 1
time step continuity errors : sum local = 1.4019e-06, global = -2.66766e-20, cumulative = -4.08288e-19
GAMG:  Solving for p, Initial residual = 0.00194125, Final residual = 7.2663e-07, No Iterations 7
time step continuity errors : sum local = 7.72757e-10, global = -4.21397e-20, cumulative = -4.50428e-19
smoothSolver:  Solving for epsilon, Initial residual = 0.00203763, Final residual = 3.36192e-06, No Iterations 2
smoothSolver:  Solving for k, Initial residual = 0.0180056, Final residual = 2.64407e-06, No Iterations 3
ExecutionTime = 0.04 s  ClockTime = 0 s

fieldAverage fieldAverage1 write:
    Calculating averages

ddt2 ddt21 field dUdt2 average: 0.0279981
ddt2 ddt21 field dpdt2 average: 7.53663e-05
multiply multiply1_scalar_scalar execute:
    Initialising k2 to k
    Performing k2 * k_0
multiply multiply1_vector_vector execute:
    Initialising U2 to U
    Performing U2 * U_0
multiply multiply1_scalar_vector execute:
    Initialising kU to k
    Performing kU * U
multiply multiply1_scalar_tensor execute:
    Initialising kU2 to k
    Performing kU2 * U2
momentum momentum1 write:
    Sum of Momentum (volume 0.0001)
        linear  : (2.44278e-08 2.46589e-08 0)


valueAverage: valueAverage1 averages:
    momentum_xMean: 1.11799e-08
    momentum_yMean: 8.11521e-09
    momentum_zMean: 0

Time = 0.15

Courant Number mean: 0.0124879 max: 0.132598
smoothSolver:  Solving for Ux, Initial residual = 0.0155669, Final residual = 2.8176e-06, No Iterations 3
smoothSolver:  Solving for Uy, Initial residual = 0.0173393, Final residual = 3.3712e-06, No Iterations 3
GAMG:  Solving for p, Initial residual = 0.0135301, Final residual = 0.000230255, No Iterations 2
time step continuity errors : sum local = 2.19187e-07, global = -1.05052e-20, cumulative = -4.60933e-19
GAMG:  Solving for p, Initial residual = 0.000793584, Final residual = 5.34176e-07, No Iterations 7
time step continuity errors : sum local = 5.77145e-10, global = -8.9594e-20, cumulative = -5.50527e-19
smoothSolver:  Solving for epsilon, Initial residual = 0.00194869, Final residual = 3.20904e-06, No Iterations 2
smoothSolver:  Solving for k, Initial residual = 0.0171635, Final residual = 2.5701e-06, No Iterations 3
ExecutionTime = 0.04 s  ClockTime = 0 s

fieldAverage fieldAverage1 write:
    Calculating averages

ddt2 ddt21 field dUdt2 average: 0.026458
ddt2 ddt21 field dpdt2 average: 6.83394e-05
multiply multiply1_scalar_scalar execute:
    Initialising k2 to k
    Performing k2 * k_0
multiply multiply1_vector_vector execute:
    Initialising U2 to U
    Performing U2 * U_0
multiply multiply1_scalar_vector execute:
    Initialising kU to k
    Performing kU * U
multiply multiply1_scalar_tensor execute:
    Initialising kU2 to k
    Performing kU2 * U2
momentum momentum1 write:
    Sum of Momentum (volume 0.0001)
        linear  : (2.51168e-08 2.54745e-08 0)


    functionObjects::streamFunction streamFunction1 calculating stream-function
        Zero face: patch: 0 face: 0
valueAverage: valueAverage1 averages:
    momentum_xMean: 1.16445e-08
    momentum_yMean: 8.69386e-09
    momentum_zMean: 0

Time = 0.155

Courant Number mean: 0.0128703 max: 0.134121
smoothSolver:  Solving for Ux, Initial residual = 0.0150262, Final residual = 2.66924e-06, No Iterations 3
smoothSolver:  Solving for Uy, Initial residual = 0.0166702, Final residual = 3.25215e-06, No Iterations 3
GAMG:  Solving for p, Initial residual = 0.0125374, Final residual = 0.000228293, No Iterations 2
time step continuity errors : sum local = 2.20503e-07, global = 2.50841e-20, cumulative = -5.25443e-19
GAMG:  Solving for p, Initial residual = 0.000765148, Final residual = 5.99427e-07, No Iterations 7
time step continuity errors : sum local = 6.57018e-10, global = 5.43871e-21, cumulative = -5.20004e-19
smoothSolver:  Solving for epsilon, Initial residual = 0.00186182, Final residual = 3.06621e-06, No Iterations 2
smoothSolver:  Solving for k, Initial residual = 0.0164113, Final residual = 2.49515e-06, No Iterations 3
ExecutionTime = 0.04 s  ClockTime = 0 s

fieldAverage fieldAverage1 write:
    Calculating averages

ddt2 ddt21 field dUdt2 average: 0.0252113
ddt2 ddt21 field dpdt2 average: 6.35935e-05
multiply multiply1_scalar_scalar execute:
    Initialising k2 to k
    Performing k2 * k_0
multiply multiply1_vector_vector execute:
    Initialising U2 to U
    Performing U2 * U_0
multiply multiply1_scalar_vector execute:
    Initialising kU to k
    Performing kU * U
multiply multiply1_scalar_tensor execute:
    Initialising kU2 to k
    Performing kU2 * U2
momentum momentum1 write:
    Sum of Momentum (volume 0.0001)
        linear  : (2.57989e-08 2.6181e-08 0)


valueAverage: valueAverage1 averages:
    momentum_xMean: 1.2101e-08
    momentum_yMean: 9.25796e-09
    momentum_zMean: 0

Time = 0.16

Courant Number mean: 0.0132489 max: 0.135555
smoothSolver:  Solving for Ux, Initial residual = 0.0145185, Final residual = 2.54277e-06, No Iterations 3
smoothSolver:  Solving for Uy, Initial residual = 0.0161098, Final residual = 3.13928e-06, No Iterations 3
GAMG:  Solving for p, Initial residual = 0.0122637, Final residual = 0.000230726, No Iterations 2
time step continuity errors : sum local = 2.26877e-07, global = -1.14358e-20, cumulative = -5.3144e-19
GAMG:  Solving for p, Initial residual = 0.000753586, Final residual = 6.27017e-07, No Iterations 7
time step continuity errors : sum local = 6.99338e-10, global = 4.33236e-21, cumulative = -5.27107e-19
smoothSolver:  Solving for epsilon, Initial residual = 0.0017804, Final residual = 2.9397e-06, No Iterations 2
smoothSolver:  Solving for k, Initial residual = 0.0157174, Final residual = 2.42464e-06, No Iterations 3
ExecutionTime = 0.04 s  ClockTime = 0 s

fieldAverage fieldAverage1 write:
    Calculating averages

ddt2 ddt21 field dUdt2 average: 0.0241782
ddt2 ddt21 field dpdt2 average: 6.25893e-05
multiply multiply1_scalar_scalar execute:
    Initialising k2 to k
    Performing k2 * k_0
multiply multiply1_vector_vector execute:
    Initialising U2 to U
    Performing U2 * U_0
multiply multiply1_scalar_vector execute:
    Initialising kU to k
    Performing kU * U
multiply multiply1_scalar_tensor execute:
    Initialising kU2 to k
    Performing kU2 * U2
momentum momentum1 write:
    Sum of Momentum (volume 0.0001)
        linear  : (2.64734e-08 2.68038e-08 0)


valueAverage: valueAverage1 averages:
    momentum_xMean: 1.25502e-08
    momentum_yMean: 9.80627e-09
    momentum_zMean: 0

Time = 0.165

Courant Number mean: 0.0136242 max: 0.136932
smoothSolver:  Solving for Ux, Initial residual = 0.0140381, Final residual = 2.43589e-06, No Iterations 3
smoothSolver:  Solving for Uy, Initial residual = 0.0156401, Final residual = 3.03933e-06, No Iterations 3
GAMG:  Solving for p, Initial residual = 0.0124231, Final residual = 0.000237628, No Iterations 2
time step continuity errors : sum local = 2.37703e-07, global = -2.53529e-20, cumulative = -5.5246e-19
GAMG:  Solving for p, Initial residual = 0.000755795, Final residual = 6.80376e-07, No Iterations 7
time step continuity errors : sum local = 7.70883e-10, global = 4.10695e-20, cumulative = -5.11391e-19
smoothSolver:  Solving for epsilon, Initial residual = 0.00169883, Final residual = 2.80627e-06, No Iterations 2
smoothSolver:  Solving for k, Initial residual = 0.0150701, Final residual = 2.35053e-06, No Iterations 3
ExecutionTime = 0.05 s  ClockTime = 0 s

fieldAverage fieldAverage1 write:
    Calculating averages

ddt2 ddt21 field dUdt2 average: 0.0232999
ddt2 ddt21 field dpdt2 average: 6.5288e-05
multiply multiply1_scalar_scalar execute:
    Initialising k2 to k
    Performing k2 * k_0
multiply multiply1_vector_vector execute:
    Initialising U2 to U
    Performing U2 * U_0
multiply multiply1_scalar_vector execute:
    Initialising kU to k
    Performing kU * U
multiply multiply1_scalar_tensor execute:
    Initialising kU2 to k
    Performing kU2 * U2
momentum momentum1 write:
    Sum of Momentum (volume 0.0001)
        linear  : (2.71372e-08 2.73692e-08 0)


valueAverage: valueAverage1 averages:
    momentum_xMean: 1.29922e-08
    momentum_yMean: 1.03385e-08
    momentum_zMean: 0

Time = 0.17

Courant Number mean: 0.013997 max: 0.13827
smoothSolver:  Solving for Ux, Initial residual = 0.0135858, Final residual = 2.3501e-06, No Iterations 3
smoothSolver:  Solving for Uy, Initial residual = 0.0151991, Final residual = 2.96339e-06, No Iterations 3
GAMG:  Solving for p, Initial residual = 0.0132972, Final residual = 0.000248904, No Iterations 2
time step continuity errors : sum local = 2.52817e-07, global = 4.35404e-20, cumulative = -4.6785e-19
GAMG:  Solving for p, Initial residual = 0.000763726, Final residual = 7.41716e-07, No Iterations 7
time step continuity errors : sum local = 8.52901e-10, global = -9.36782e-21, cumulative = -4.77218e-19
smoothSolver:  Solving for epsilon, Initial residual = 0.00163517, Final residual = 2.70595e-06, No Iterations 2
smoothSolver:  Solving for k, Initial residual = 0.0144707, Final residual = 2.29708e-06, No Iterations 3
ExecutionTime = 0.05 s  ClockTime = 0 s

fieldAverage fieldAverage1 write:
    Calculating averages

ddt2 ddt21 field dUdt2 average: 0.022555
ddt2 ddt21 field dpdt2 average: 6.95272e-05
multiply multiply1_scalar_scalar execute:
    Initialising k2 to k
    Performing k2 * k_0
multiply multiply1_vector_vector execute:
    Initialising U2 to U
    Performing U2 * U_0
multiply multiply1_scalar_vector execute:
    Initialising kU to k
    Performing kU * U
multiply multiply1_scalar_tensor execute:
    Initialising kU2 to k
    Performing kU2 * U2
momentum momentum1 write:
    Sum of Momentum (volume 0.0001)
        linear  : (2.77966e-08 2.78964e-08 0)


valueAverage: valueAverage1 averages:
    momentum_xMean: 1.34276e-08
    momentum_yMean: 1.08549e-08
    momentum_zMean: 0

Time = 0.175

Courant Number mean: 0.0143687 max: 0.139587
smoothSolver:  Solving for Ux, Initial residual = 0.0131506, Final residual = 2.27842e-06, No Iterations 3
smoothSolver:  Solving for Uy, Initial residual = 0.0147922, Final residual = 2.89448e-06, No Iterations 3
GAMG:  Solving for p, Initial residual = 0.0129006, Final residual = 0.000253243, No Iterations 2
time step continuity errors : sum local = 2.62097e-07, global = -5.74891e-20, cumulative = -5.34707e-19
GAMG:  Solving for p, Initial residual = 0.000727048, Final residual = 6.97577e-07, No Iterations 7
time step continuity errors : sum local = 8.16017e-10, global = 4.33546e-20, cumulative = -4.91353e-19
smoothSolver:  Solving for epsilon, Initial residual = 0.00157267, Final residual = 2.60821e-06, No Iterations 2
smoothSolver:  Solving for k, Initial residual = 0.0139032, Final residual = 2.23887e-06, No Iterations 3
ExecutionTime = 0.05 s  ClockTime = 0 s

fieldAverage fieldAverage1 write:
    Calculating averages

ddt2 ddt21 field dUdt2 average: 0.0219363
ddt2 ddt21 field dpdt2 average: 7.19454e-05
multiply multiply1_scalar_scalar execute:
    Initialising k2 to k
    Performing k2 * k_0
multiply multiply1_vector_vector execute:
    Initialising U2 to U
    Performing U2 * U_0
multiply multiply1_scalar_vector execute:
    Initialising kU to k
    Performing kU * U
multiply multiply1_scalar_tensor execute:
    Initialising kU2 to k
    Performing kU2 * U2
momentum momentum1 write:
    Sum of Momentum (volume 0.0001)
        linear  : (2.83582e-08 2.83942e-08 0)


    functionObjects::streamFunction streamFunction1 calculating stream-function
        Zero face: patch: 0 face: 0
valueAverage: valueAverage1 averages:
    momentum_xMean: 1.38542e-08
    momentum_yMean: 1.1356e-08
    momentum_zMean: 0

Time = 0.18

Courant Number mean: 0.0147399 max: 0.140903
smoothSolver:  Solving for Ux, Initial residual = 0.0127551, Final residual = 2.22794e-06, No Iterations 3
smoothSolver:  Solving for Uy, Initial residual = 0.0144275, Final residual = 2.8404e-06, No Iterations 3
GAMG:  Solving for p, Initial residual = 0.0136236, Final residual = 0.000266114, No Iterations 2
time step continuity errors : sum local = 2.78861e-07, global = 6.67742e-20, cumulative = -4.24579e-19
GAMG:  Solving for p, Initial residual = 0.000732154, Final residual = 7.37436e-07, No Iterations 7
time step continuity errors : sum local = 8.73641e-10, global = -1.91803e-20, cumulative = -4.43759e-19
smoothSolver:  Solving for epsilon, Initial residual = 0.00151363, Final residual = 2.51755e-06, No Iterations 2
smoothSolver:  Solving for k, Initial residual = 0.013395, Final residual = 2.19058e-06, No Iterations 3
ExecutionTime = 0.05 s  ClockTime = 0 s

fieldAverage fieldAverage1 write:
    Calculating averages

ddt2 ddt21 field dUdt2 average: 0.0214169
ddt2 ddt21 field dpdt2 average: 7.56681e-05
multiply multiply1_scalar_scalar execute:
    Initialising k2 to k
    Performing k2 * k_0
multiply multiply1_vector_vector execute:
    Initialising U2 to U
    Performing U2 * U_0
multiply multiply1_scalar_vector execute:
    Initialising kU to k
    Performing kU * U
multiply multiply1_scalar_tensor execute:
    Initialising kU2 to k
    Performing kU2 * U2
momentum momentum1 write:
    Sum of Momentum (volume 0.0001)
        linear  : (2.88263e-08 2.88859e-08 0)


valueAverage: valueAverage1 averages:
    momentum_xMean: 1.42701e-08
    momentum_yMean: 1.18429e-08
    momentum_zMean: 0

Time = 0.185

Courant Number mean: 0.0151124 max: 0.142233
smoothSolver:  Solving for Ux, Initial residual = 0.0123819, Final residual = 2.19238e-06, No Iterations 3
smoothSolver:  Solving for Uy, Initial residual = 0.014088, Final residual = 2.79208e-06, No Iterations 3
GAMG:  Solving for p, Initial residual = 0.0137055, Final residual = 0.000263492, No Iterations 2
time step continuity errors : sum local = 2.80011e-07, global = -1.43206e-20, cumulative = -4.58079e-19
GAMG:  Solving for p, Initial residual = 0.000674301, Final residual = 6.58262e-07, No Iterations 7
time step continuity errors : sum local = 7.91227e-10, global = -7.11169e-20, cumulative = -5.29196e-19
smoothSolver:  Solving for epsilon, Initial residual = 0.00145797, Final residual = 2.43735e-06, No Iterations 2
smoothSolver:  Solving for k, Initial residual = 0.0129225, Final residual = 2.11412e-06, No Iterations 3
ExecutionTime = 0.05 s  ClockTime = 0 s

fieldAverage fieldAverage1 write:
    Calculating averages

ddt2 ddt21 field dUdt2 average: 0.0210082
ddt2 ddt21 field dpdt2 average: 7.40278e-05
multiply multiply1_scalar_scalar execute:
    Initialising k2 to k
    Performing k2 * k_0
multiply multiply1_vector_vector execute:
    Initialising U2 to U
    Performing U2 * U_0
multiply multiply1_scalar_vector execute:
    Initialising kU to k
    Performing kU * U
multiply multiply1_scalar_tensor execute:
    Initialising kU2 to k
    Performing kU2 * U2
momentum momentum1 write:
    Sum of Momentum (volume 0.0001)
        linear  : (2.91779e-08 2.93413e-08 0)


valueAverage: valueAverage1 averages:
    momentum_xMean: 1.4673e-08
    momentum_yMean: 1.23159e-08
    momentum_zMean: 0

Time = 0.19

Courant Number mean: 0.015483 max: 0.14361
smoothSolver:  Solving for Ux, Initial residual = 0.0120371, Final residual = 2.1443e-06, No Iterations 3
smoothSolver:  Solving for Uy, Initial residual = 0.0137472, Final residual = 2.73841e-06, No Iterations 3
GAMG:  Solving for p, Initial residual = 0.0140996, Final residual = 0.000289837, No Iterations 2
time step continuity errors : sum local = 3.09455e-07, global = -4.87623e-20, cumulative = -5.77959e-19
GAMG:  Solving for p, Initial residual = 0.00073263, Final residual = 5.95875e-07, No Iterations 7
time step continuity errors : sum local = 7.19177e-10, global = -1.70606e-21, cumulative = -5.79665e-19
smoothSolver:  Solving for epsilon, Initial residual = 0.00140834, Final residual = 2.36188e-06, No Iterations 2
smoothSolver:  Solving for k, Initial residual = 0.0124759, Final residual = 2.06885e-06, No Iterations 3
ExecutionTime = 0.05 s  ClockTime = 0 s

fieldAverage fieldAverage1 write:
    Calculating averages

ddt2 ddt21 field dUdt2 average: 0.0206948
ddt2 ddt21 field dpdt2 average: 9.68108e-05
multiply multiply1_scalar_scalar execute:
    Initialising k2 to k
    Performing k2 * k_0
multiply multiply1_vector_vector execute:
    Initialising U2 to U
    Performing U2 * U_0
multiply multiply1_scalar_vector execute:
    Initialising kU to k
    Performing kU * U
multiply multiply1_scalar_tensor execute:
    Initialising kU2 to k
    Performing kU2 * U2
momentum momentum1 write:
    Sum of Momentum (volume 0.0001)
        linear  : (2.96553e-08 2.97761e-08 0)


valueAverage: valueAverage1 averages:
    momentum_xMean: 1.50673e-08
    momentum_yMean: 1.27754e-08
    momentum_zMean: 0

Time = 0.195

Courant Number mean: 0.0158539 max: 0.145033
smoothSolver:  Solving for Ux, Initial residual = 0.0116743, Final residual = 2.11389e-06, No Iterations 3
smoothSolver:  Solving for Uy, Initial residual = 0.0133989, Final residual = 2.70279e-06, No Iterations 3
GAMG:  Solving for p, Initial residual = 0.0125165, Final residual = 0.00029657, No Iterations 2
time step continuity errors : sum local = 3.18784e-07, global = -3.5486e-20, cumulative = -6.15151e-19
GAMG:  Solving for p, Initial residual = 0.000736888, Final residual = 7.17078e-07, No Iterations 7
time step continuity errors : sum local = 8.71142e-10, global = -4.6684e-20, cumulative = -6.61835e-19
smoothSolver:  Solving for epsilon, Initial residual = 0.0013624, Final residual = 2.29133e-06, No Iterations 2
smoothSolver:  Solving for k, Initial residual = 0.0120519, Final residual = 2.01488e-06, No Iterations 3
ExecutionTime = 0.05 s  ClockTime = 0 s

fieldAverage fieldAverage1 write:
    Calculating averages

ddt2 ddt21 field dUdt2 average: 0.0204169
ddt2 ddt21 field dpdt2 average: 8.44096e-05
multiply multiply1_scalar_scalar execute:
    Initialising k2 to k
    Performing k2 * k_0
multiply multiply1_vector_vector execute:
    Initialising U2 to U
    Performing U2 * U_0
multiply multiply1_scalar_vector execute:
    Initialising kU to k
    Performing kU * U
multiply multiply1_scalar_tensor execute:
    Initialising kU2 to k
    Performing kU2 * U2
momentum momentum1 write:
    Sum of Momentum (volume 0.0001)
        linear  : (3.01197e-08 3.01963e-08 0)


valueAverage: valueAverage1 averages:
    momentum_xMean: 1.54533e-08
    momentum_yMean: 1.3222e-08
    momentum_zMean: 0

Time = 0.2

Courant Number mean: 0.0162261 max: 0.1465
smoothSolver:  Solving for Ux, Initial residual = 0.0113751, Final residual = 2.12101e-06, No Iterations 3
smoothSolver:  Solving for Uy, Initial residual = 0.0131335, Final residual = 2.75365e-06, No Iterations 3
GAMG:  Solving for p, Initial residual = 0.0129503, Final residual = 0.000304998, No Iterations 2
time step continuity errors : sum local = 3.30824e-07, global = 2.96958e-20, cumulative = -6.32139e-19
GAMG:  Solving for p, Initial residual = 0.000737302, Final residual = 7.10099e-07, No Iterations 7
time step continuity errors : sum local = 8.7158e-10, global = -1.26197e-19, cumulative = -7.58336e-19
smoothSolver:  Solving for epsilon, Initial residual = 0.0013172, Final residual = 2.22569e-06, No Iterations 2
smoothSolver:  Solving for k, Initial residual = 0.0116671, Final residual = 1.97146e-06, No Iterations 3
ExecutionTime = 0.05 s  ClockTime = 0 s

fieldAverage fieldAverage1 write:
    Calculating averages

ddt2 ddt21 field dUdt2 average: 0.0201785
ddt2 ddt21 field dpdt2 average: 8.62026e-05
multiply multiply1_scalar_scalar execute:
    Initialising k2 to k
    Performing k2 * k_0
multiply multiply1_vector_vector execute:
    Initialising U2 to U
    Performing U2 * U_0
multiply multiply1_scalar_vector execute:
    Initialising kU to k
    Performing kU * U
multiply multiply1_scalar_tensor execute:
    Initialising kU2 to k
    Performing kU2 * U2
momentum momentum1 write:
    Sum of Momentum (volume 0.0001)
        linear  : (3.0588e-08 3.0589e-08 0)


    functionObjects::streamFunction streamFunction1 calculating stream-function
        Zero face: patch: 0 face: 0
valueAverage: valueAverage1 averages:
    momentum_xMean: 1.58316e-08
    momentum_yMean: 1.36562e-08
    momentum_zMean: 0

Time = 0.205

Courant Number mean: 0.0165957 max: 0.148014
smoothSolver:  Solving for Ux, Initial residual = 0.0110828, Final residual = 2.11601e-06, No Iterations 3
smoothSolver:  Solving for Uy, Initial residual = 0.0128745, Final residual = 2.81108e-06, No Iterations 3
GAMG:  Solving for p, Initial residual = 0.0154559, Final residual = 0.000315486, No Iterations 2
time step continuity errors : sum local = 3.44596e-07, global = 6.39727e-20, cumulative = -6.94363e-19
GAMG:  Solving for p, Initial residual = 0.000804541, Final residual = 4.78724e-07, No Iterations 7
time step continuity errors : sum local = 5.92648e-10, global = -7.30711e-20, cumulative = -7.67434e-19
smoothSolver:  Solving for epsilon, Initial residual = 0.00128063, Final residual = 2.17489e-06, No Iterations 2
smoothSolver:  Solving for k, Initial residual = 0.011312, Final residual = 1.93794e-06, No Iterations 3
ExecutionTime = 0.05 s  ClockTime = 0 s

fieldAverage fieldAverage1 write:
    Calculating averages

ddt2 ddt21 field dUdt2 average: 0.0199487
ddt2 ddt21 field dpdt2 average: 0.000137038
multiply multiply1_scalar_scalar execute:
    Initialising k2 to k
    Performing k2 * k_0
multiply multiply1_vector_vector execute:
    Initialising U2 to U
    Performing U2 * U_0
multiply multiply1_scalar_vector execute:
    Initialising kU to k
    Performing kU * U
multiply multiply1_scalar_tensor execute:
    Initialising kU2 to k
    Performing kU2 * U2
momentum momentum1 write:
    Sum of Momentum (volume 0.0001)
        linear  : (3.12678e-08 3.09541e-08 0)


valueAverage: valueAverage1 averages:
    momentum_xMean: 1.62081e-08
    momentum_yMean: 1.40781e-08
    momentum_zMean: 0

Time = 0.21

Courant Number mean: 0.0169598 max: 0.149569
smoothSolver:  Solving for Ux, Initial residual = 0.0107613, Final residual = 2.09295e-06, No Iterations 3
smoothSolver:  Solving for Uy, Initial residual = 0.0125143, Final residual = 2.84693e-06, No Iterations 3
GAMG:  Solving for p, Initial residual = 0.0121319, Final residual = 0.000298568, No Iterations 2
time step continuity errors : sum local = 3.28214e-07, global = -1.55489e-19, cumulative = -9.22923e-19
GAMG:  Solving for p, Initial residual = 0.000821955, Final residual = 8.05628e-07, No Iterations 7
time step continuity errors : sum local = 9.99098e-10, global = -3.78228e-20, cumulative = -9.60746e-19
smoothSolver:  Solving for epsilon, Initial residual = 0.00124118, Final residual = 2.12279e-06, No Iterations 2
smoothSolver:  Solving for k, Initial residual = 0.0109729, Final residual = 1.8982e-06, No Iterations 3
ExecutionTime = 0.05 s  ClockTime = 0 s

fieldAverage fieldAverage1 write:
    Calculating averages

ddt2 ddt21 field dUdt2 average: 0.0196889
ddt2 ddt21 field dpdt2 average: 0.000119856
multiply multiply1_scalar_scalar execute:
    Initialising k2 to k
    Performing k2 * k_0
multiply multiply1_vector_vector execute:
    Initialising U2 to U
    Performing U2 * U_0
multiply multiply1_scalar_vector execute:
    Initialising kU to k
    Performing kU * U
multiply multiply1_scalar_tensor execute:
    Initialising kU2 to k
    Performing kU2 * U2
momentum momentum1 write:
    Sum of Momentum (volume 0.0001)
        linear  : (3.16787e-08 3.12873e-08 0)


valueAverage: valueAverage1 averages:
    momentum_xMean: 1.65765e-08
    momentum_yMean: 1.44879e-08
    momentum_zMean: 0

Time = 0.215

Courant Number mean: 0.017323 max: 0.15114
smoothSolver:  Solving for Ux, Initial residual = 0.0104935, Final residual = 2.10578e-06, No Iterations 3
smoothSolver:  Solving for Uy, Initial residual = 0.012408, Final residual = 2.91934e-06, No Iterations 3
GAMG:  Solving for p, Initial residual = 0.012591, Final residual = 0.000317325, No Iterations 2
time step continuity errors : sum local = 3.4949e-07, global = -4.06146e-20, cumulative = -1.00136e-18
GAMG:  Solving for p, Initial residual = 0.000787662, Final residual = 7.44118e-07, No Iterations 7
time step continuity errors : sum local = 9.23943e-10, global = 1.23891e-19, cumulative = -8.7747e-19
smoothSolver:  Solving for epsilon, Initial residual = 0.00120708, Final residual = 2.07303e-06, No Iterations 2
smoothSolver:  Solving for k, Initial residual = 0.0106482, Final residual = 1.86803e-06, No Iterations 3
ExecutionTime = 0.06 s  ClockTime = 0 s

fieldAverage fieldAverage1 write:
    Calculating averages

ddt2 ddt21 field dUdt2 average: 0.0194825
ddt2 ddt21 field dpdt2 average: 0.000106951
multiply multiply1_scalar_scalar execute:
    Initialising k2 to k
    Performing k2 * k_0
multiply multiply1_vector_vector execute:
    Initialising U2 to U
    Performing U2 * U_0
multiply multiply1_scalar_vector execute:
    Initialising kU to k
    Performing kU * U
multiply multiply1_scalar_tensor execute:
    Initialising kU2 to k
    Performing kU2 * U2
momentum momentum1 write:
    Sum of Momentum (volume 0.0001)
        linear  : (3.19631e-08 3.1601e-08 0)


valueAverage: valueAverage1 averages:
    momentum_xMean: 1.69343e-08
    momentum_yMean: 1.48858e-08
    momentum_zMean: 0

Time = 0.22

Courant Number mean: 0.0176836 max: 0.152715
smoothSolver:  Solving for Ux, Initial residual = 0.0102178, Final residual = 2.10932e-06, No Iterations 3
smoothSolver:  Solving for Uy, Initial residual = 0.0123052, Final residual = 2.96599e-06, No Iterations 3
GAMG:  Solving for p, Initial residual = 0.0124731, Final residual = 0.000318512, No Iterations 2
time step continuity errors : sum local = 3.51884e-07, global = -3.06264e-20, cumulative = -9.08096e-19
GAMG:  Solving for p, Initial residual = 0.000749633, Final residual = 6.92172e-07, No Iterations 7
time step continuity errors : sum local = 8.64096e-10, global = -3.93635e-20, cumulative = -9.4746e-19
smoothSolver:  Solving for epsilon, Initial residual = 0.00117469, Final residual = 2.02721e-06, No Iterations 2
smoothSolver:  Solving for k, Initial residual = 0.0103533, Final residual = 1.83923e-06, No Iterations 3
ExecutionTime = 0.06 s  ClockTime = 0 s

fieldAverage fieldAverage1 write:
    Calculating averages

ddt2 ddt21 field dUdt2 average: 0.0192984
ddt2 ddt21 field dpdt2 average: 9.80244e-05
multiply multiply1_scalar_scalar execute:
    Initialising k2 to k
    Performing k2 * k_0
multiply multiply1_vector_vector execute:
    Initialising U2 to U
    Performing U2 * U_0
multiply multiply1_scalar_vector execute:
    Initialising kU to k
    Performing kU * U
multiply multiply1_scalar_tensor execute:
    Initialising kU2 to k
    Performing kU2 * U2
momentum momentum1 write:
    Sum of Momentum (volume 0.0001)
        linear  : (3.2216e-08 3.19086e-08 0)


valueAverage: valueAverage1 averages:
    momentum_xMean: 1.72816e-08
    momentum_yMean: 1.52727e-08
    momentum_zMean: 0

Time = 0.225

Courant Number mean: 0.0180527 max: 0.154299
smoothSolver:  Solving for Ux, Initial residual = 0.00994877, Final residual = 2.11978e-06, No Iterations 3
smoothSolver:  Solving for Uy, Initial residual = 0.0121863, Final residual = 3.0036e-06, No Iterations 3
GAMG:  Solving for p, Initial residual = 0.0127069, Final residual = 0.000320335, No Iterations 2
time step continuity errors : sum local = 3.55545e-07, global = -5.3105e-20, cumulative = -1.00056e-18
GAMG:  Solving for p, Initial residual = 0.000760171, Final residual = 6.74667e-07, No Iterations 7
time step continuity errors : sum local = 8.46992e-10, global = 9.91893e-20, cumulative = -9.01375e-19
smoothSolver:  Solving for epsilon, Initial residual = 0.00114356, Final residual = 1.98567e-06, No Iterations 2
smoothSolver:  Solving for k, Initial residual = 0.0100732, Final residual = 1.81239e-06, No Iterations 3
ExecutionTime = 0.06 s  ClockTime = 0 s

fieldAverage fieldAverage1 write:
    Calculating averages

ddt2 ddt21 field dUdt2 average: 0.0191198
ddt2 ddt21 field dpdt2 average: 0.000102139
multiply multiply1_scalar_scalar execute:
    Initialising k2 to k
    Performing k2 * k_0
multiply multiply1_vector_vector execute:
    Initialising U2 to U
    Performing U2 * U_0
multiply multiply1_scalar_vector execute:
    Initialising kU to k
    Performing kU * U
multiply multiply1_scalar_tensor execute:
    Initialising kU2 to k
    Performing kU2 * U2
momentum momentum1 write:
    Sum of Momentum (volume 0.0001)
        linear  : (3.24549e-08 3.22146e-08 0)


    functionObjects::streamFunction streamFunction1 calculating stream-function
        Zero face: patch: 0 face: 0
valueAverage: valueAverage1 averages:
    momentum_xMean: 1.76188e-08
    momentum_yMean: 1.56492e-08
    momentum_zMean: 0

Time = 0.23

Courant Number mean: 0.0184191 max: 0.155882
smoothSolver:  Solving for Ux, Initial residual = 0.00968288, Final residual = 2.1352e-06, No Iterations 3
smoothSolver:  Solving for Uy, Initial residual = 0.0120548, Final residual = 3.06425e-06, No Iterations 3
[...]
    momentum_yMean: 2.35246e-11
    momentum_zMean: 0

Time = 9.97

Courant Number mean: 1 max: 1
smoothSolver:  Solving for Ux, Initial residual = 0.0712405, Final residual = 0.0343898, No Iterations 1000
smoothSolver:  Solving for Uy, Initial residual = 0.00617128, Final residual = 4.62508e-06, No Iterations 9
GAMG:  Solving for p, Initial residual = 0.126741, Final residual = 0.00946817, No Iterations 1
time step continuity errors : sum local = 7.21284e-17, global = -2.97728e-18, cumulative = -1.01869e-15
GAMG:  Solving for p, Initial residual = 0.0786069, Final residual = 7.85527e-07, No Iterations 10
time step continuity errors : sum local = 6.21415e-17, global = 1.36478e-18, cumulative = -1.01733e-15
smoothSolver:  Solving for epsilon, Initial residual = 0.0167195, Final residual = 9.86869e-06, No Iterations 48
smoothSolver:  Solving for k, Initial residual = 0.0227899, Final residual = 9.1889e-06, No Iterations 23
ExecutionTime = 6.22 s  ClockTime = 7 s

fieldAverage fieldAverage1 write:
    Calculating averages

ddt2 ddt21 field dUdt2 average: 1.44692e-27
ddt2 ddt21 field dpdt2 average: 3.97284e-24
multiply multiply1_scalar_scalar execute:
    Initialising k2 to k
    Performing k2 * k_0
multiply multiply1_vector_vector execute:
    Initialising U2 to U
    Performing U2 * U_0
multiply multiply1_scalar_vector execute:
    Initialising kU to k
    Performing kU * U
multiply multiply1_scalar_tensor execute:
    Initialising kU2 to k
    Performing kU2 * U2
momentum momentum1 write:
    Sum of Momentum (volume 0.0001)
        linear  : (-0.0001 7.75157e-21 0)


valueAverage: valueAverage1 averages:
    momentum_xMean: -9.9944e-05
    momentum_yMean: 2.34069e-11
    momentum_zMean: 0

Time = 9.975

Courant Number mean: 1 max: 1
smoothSolver:  Solving for Ux, Initial residual = 0.069693, Final residual = 0.0323911, No Iterations 1000
smoothSolver:  Solving for Uy, Initial residual = 0.00444501, Final residual = 7.40051e-06, No Iterations 8
GAMG:  Solving for p, Initial residual = 0.118969, Final residual = 0.00844905, No Iterations 1
time step continuity errors : sum local = 6.61777e-17, global = -2.21433e-18, cumulative = -1.01954e-15
GAMG:  Solving for p, Initial residual = 0.0650508, Final residual = 8.60649e-07, No Iterations 10
time step continuity errors : sum local = 6.36049e-17, global = -4.25147e-18, cumulative = -1.02379e-15
smoothSolver:  Solving for epsilon, Initial residual = 0.0171372, Final residual = 9.55986e-06, No Iterations 49
smoothSolver:  Solving for k, Initial residual = 0.0227906, Final residual = 9.36923e-06, No Iterations 31
ExecutionTime = 6.23 s  ClockTime = 7 s

fieldAverage fieldAverage1 write:
    Calculating averages

ddt2 ddt21 field dUdt2 average: 1.47892e-27
ddt2 ddt21 field dpdt2 average: 4.80814e-25
limitFields limitFields1:
    Limiting field U: min(|1|) max(|1|): min(-2.33137e-15): max(5.44933e-15)
multiply multiply1_scalar_scalar execute:
    Initialising k2 to k
    Performing k2 * k_0
multiply multiply1_vector_vector execute:
    Initialising U2 to U
    Performing U2 * U_0
multiply multiply1_scalar_vector execute:
    Initialising kU to k
    Performing kU * U
multiply multiply1_scalar_tensor execute:
    Initialising kU2 to k
    Performing kU2 * U2
momentum momentum1 write:
    Sum of Momentum (volume 0.0001)
        linear  : (-0.0001 7.28606e-21 0)


nearWallFields nearWallFields1 write:
    Sampling fields to 9.975
    functionObjects::streamFunction streamFunction1 calculating stream-function
        Zero face: patch: 0 face: 0
valueAverage: valueAverage1 averages:
    momentum_xMean: -9.99443e-05
    momentum_yMean: 2.32899e-11
    momentum_zMean: 0

reference reference1 output:
    sampled value: (-1 1.42604e-13 0)

reference reference2 output:
    sampled value: 0

Time = 9.98

Courant Number mean: 1 max: 1
smoothSolver:  Solving for Ux, Initial residual = 0.0737645, Final residual = 0.0343661, No Iterations 1000
smoothSolver:  Solving for Uy, Initial residual = 0.00473772, Final residual = 6.93161e-06, No Iterations 8
GAMG:  Solving for p, Initial residual = 0.181893, Final residual = 0.0113269, No Iterations 1
time step continuity errors : sum local = 6.54435e-17, global = 5.60017e-19, cumulative = -1.02323e-15
GAMG:  Solving for p, Initial residual = 0.0712575, Final residual = 5.38258e-07, No Iterations 11
time step continuity errors : sum local = 5.79905e-17, global = -1.84892e-18, cumulative = -1.02508e-15
smoothSolver:  Solving for epsilon, Initial residual = 0.0161065, Final residual = 9.4987e-06, No Iterations 48
smoothSolver:  Solving for k, Initial residual = 0.0227918, Final residual = 9.83012e-06, No Iterations 31
ExecutionTime = 6.23 s  ClockTime = 7 s

fieldAverage fieldAverage1 write:
    Calculating averages

ddt2 ddt21 field dUdt2 average: 1.68923e-27
ddt2 ddt21 field dpdt2 average: 2.29902e-25
multiply multiply1_scalar_scalar execute:
    Initialising k2 to k
    Performing k2 * k_0
multiply multiply1_vector_vector execute:
    Initialising U2 to U
    Performing U2 * U_0
multiply multiply1_scalar_vector execute:
    Initialising kU to k
    Performing kU * U
multiply multiply1_scalar_tensor execute:
    Initialising kU2 to k
    Performing kU2 * U2
momentum momentum1 write:
    Sum of Momentum (volume 0.0001)
        linear  : (-0.0001 1.06358e-20 0)


valueAverage: valueAverage1 averages:
    momentum_xMean: -9.99446e-05
    momentum_yMean: 2.31734e-11
    momentum_zMean: 0

Time = 9.985

Courant Number mean: 1 max: 1
smoothSolver:  Solving for Ux, Initial residual = 0.0723381, Final residual = 0.0337099, No Iterations 1000
smoothSolver:  Solving for Uy, Initial residual = 0.00493721, Final residual = 9.4593e-06, No Iterations 8
GAMG:  Solving for p, Initial residual = 0.132197, Final residual = 0.00855772, No Iterations 1
time step continuity errors : sum local = 6.52191e-17, global = 1.20324e-18, cumulative = -1.02388e-15
GAMG:  Solving for p, Initial residual = 0.0774592, Final residual = 5.29545e-07, No Iterations 10
time step continuity errors : sum local = 6.08774e-17, global = -1.29143e-18, cumulative = -1.02517e-15
smoothSolver:  Solving for epsilon, Initial residual = 0.0160484, Final residual = 9.48237e-06, No Iterations 48
smoothSolver:  Solving for k, Initial residual = 0.0227928, Final residual = 9.78582e-06, No Iterations 31
ExecutionTime = 6.23 s  ClockTime = 7 s

fieldAverage fieldAverage1 write:
    Calculating averages

ddt2 ddt21 field dUdt2 average: 1.64252e-27
ddt2 ddt21 field dpdt2 average: 9.32332e-25
multiply multiply1_scalar_scalar execute:
    Initialising k2 to k
    Performing k2 * k_0
multiply multiply1_vector_vector execute:
    Initialising U2 to U
    Performing U2 * U_0
multiply multiply1_scalar_vector execute:
    Initialising kU to k
    Performing kU * U
multiply multiply1_scalar_tensor execute:
    Initialising kU2 to k
    Performing kU2 * U2
momentum momentum1 write:
    Sum of Momentum (volume 0.0001)
        linear  : (-0.0001 9.65233e-21 0)


valueAverage: valueAverage1 averages:
    momentum_xMean: -9.99449e-05
    momentum_yMean: 2.30576e-11
    momentum_zMean: 0

Time = 9.99

Courant Number mean: 1 max: 1
smoothSolver:  Solving for Ux, Initial residual = 0.0697506, Final residual = 0.0345663, No Iterations 1000
smoothSolver:  Solving for Uy, Initial residual = 0.00462848, Final residual = 8.45235e-06, No Iterations 8
GAMG:  Solving for p, Initial residual = 0.124167, Final residual = 0.00809026, No Iterations 1
time step continuity errors : sum local = 6.41845e-17, global = 2.20103e-18, cumulative = -1.02297e-15
GAMG:  Solving for p, Initial residual = 0.0716677, Final residual = 8.49404e-07, No Iterations 9
time step continuity errors : sum local = 5.95922e-17, global = -2.71791e-18, cumulative = -1.02569e-15
smoothSolver:  Solving for epsilon, Initial residual = 0.0160255, Final residual = 9.99737e-06, No Iterations 47
smoothSolver:  Solving for k, Initial residual = 0.0227938, Final residual = 9.4316e-06, No Iterations 28
ExecutionTime = 6.24 s  ClockTime = 7 s

fieldAverage fieldAverage1 write:
    Calculating averages

ddt2 ddt21 field dUdt2 average: 1.34338e-27
ddt2 ddt21 field dpdt2 average: 4.97938e-25
multiply multiply1_scalar_scalar execute:
    Initialising k2 to k
    Performing k2 * k_0
multiply multiply1_vector_vector execute:
    Initialising U2 to U
    Performing U2 * U_0
multiply multiply1_scalar_vector execute:
    Initialising kU to k
    Performing kU * U
multiply multiply1_scalar_tensor execute:
    Initialising kU2 to k
    Performing kU2 * U2
momentum momentum1 write:
    Sum of Momentum (volume 0.0001)
        linear  : (-0.0001 6.56962e-21 0)


valueAverage: valueAverage1 averages:
    momentum_xMean: -9.99452e-05
    momentum_yMean: 2.29423e-11
    momentum_zMean: 0

Time = 9.995

Courant Number mean: 1 max: 1
smoothSolver:  Solving for Ux, Initial residual = 0.0677868, Final residual = 0.0323577, No Iterations 1000
smoothSolver:  Solving for Uy, Initial residual = 0.0042047, Final residual = 9.63628e-06, No Iterations 8
GAMG:  Solving for p, Initial residual = 0.125928, Final residual = 0.0092441, No Iterations 1
time step continuity errors : sum local = 5.61404e-17, global = 1.66098e-18, cumulative = -1.02403e-15
GAMG:  Solving for p, Initial residual = 0.0631969, Final residual = 4.99921e-07, No Iterations 11
time step continuity errors : sum local = 6.15838e-17, global = -1.21068e-19, cumulative = -1.02415e-15
smoothSolver:  Solving for epsilon, Initial residual = 0.0168419, Final residual = 9.96704e-06, No Iterations 48
smoothSolver:  Solving for k, Initial residual = 0.0227947, Final residual = 9.47919e-06, No Iterations 26
ExecutionTime = 6.24 s  ClockTime = 7 s

fieldAverage fieldAverage1 write:
    Calculating averages

ddt2 ddt21 field dUdt2 average: 1.65298e-27
ddt2 ddt21 field dpdt2 average: 3.34098e-25
multiply multiply1_scalar_scalar execute:
    Initialising k2 to k
    Performing k2 * k_0
multiply multiply1_vector_vector execute:
    Initialising U2 to U
    Performing U2 * U_0
multiply multiply1_scalar_vector execute:
    Initialising kU to k
    Performing kU * U
multiply multiply1_scalar_tensor execute:
    Initialising kU2 to k
    Performing kU2 * U2
momentum momentum1 write:
    Sum of Momentum (volume 0.0001)
        linear  : (-0.0001 8.96286e-21 0)


valueAverage: valueAverage1 averages:
    momentum_xMean: -9.99454e-05
    momentum_yMean: 2.28276e-11
    momentum_zMean: 0

Time = 10

Courant Number mean: 1 max: 1
smoothSolver:  Solving for Ux, Initial residual = 0.072717, Final residual = 0.0336062, No Iterations 1000
smoothSolver:  Solving for Uy, Initial residual = 0.00489152, Final residual = 8.63036e-06, No Iterations 8
GAMG:  Solving for p, Initial residual = 0.126322, Final residual = 0.00789615, No Iterations 1
time step continuity errors : sum local = 6.21989e-17, global = 2.2082e-18, cumulative = -1.02194e-15
GAMG:  Solving for p, Initial residual = 0.0656412, Final residual = 6.86069e-07, No Iterations 11
time step continuity errors : sum local = 6.2523e-17, global = -8.61502e-19, cumulative = -1.0228e-15
smoothSolver:  Solving for epsilon, Initial residual = 0.0175235, Final residual = 9.78088e-06, No Iterations 49
smoothSolver:  Solving for k, Initial residual = 0.0227956, Final residual = 9.76798e-06, No Iterations 30
ExecutionTime = 6.25 s  ClockTime = 7 s

fieldAverage fieldAverage1 write:
    Calculating averages

    Writing average fields

    functionObjects::add add1 writing field: kTotal
    functionObjects::blendingFactor blendingFactor1 writing field: blendingFactorField
    scheme 1 cells :  0
    scheme 2 cells :  400
    blended cells  :  0

    functionObjects::components components1 writing field: Ux
    functionObjects::components components1 writing field: Uy
    functionObjects::components components1 writing field: Uz
    functionObjects::CourantNo CourantNo1 writing field: CourantNumberField
continuityError continuityError1 write:
    local = 6.2523e-17
    global = -8.61502e-19
    cumulative = -4.41233e-18

    functionObjects::ddt ddt1 writing field: ddtU
ddt2 ddt21 field dUdt2 average: 1.99406e-27
ddt2 ddt21 field dpdt2 average: 3.32975e-24
ddt2 ddt21 write:
    dUdt2
    dpdt2
    functionObjects::div div1 writing field: divU
    functionObjects::div div2 writing field: divPhi
    functionObjects::enstrophy enstrophy1 writing field: enstrophyField
    functionObjects::flowType flowType1 writing field: flowTypeField
    functionObjects::flux flux1 writing field: fluxField
    functionObjects::grad grad1 writing field: gradU
    functionObjects::grad grad2 writing field: gradPhi
histogram histogram1 write:
    Looking up field p
    Writing histogram of p to "/home/iwamoto/Desktop/RAS/cavity/postProcessing/histogram1/10/p_p.xy"
    functionObjects::Lambda2 Lambda21 writing field: Lambda2Field
    functionObjects::LambVector LambVector1 writing field: LambVectorField
limitFields limitFields1:
    Limiting field U: min(|1|) max(|1|): min(4.16289e-16): max(1.06818e-14)
    functionObjects::log log1 writing field: logk
    functionObjects::mag mag1 writing field: magU
    functionObjects::mag mag2 writing field: magP
    functionObjects::magSqr magSqr1 writing field: magSqrU
    functionObjects::magSqr magSqr2 writing field: magSqrP
multiply multiply1_scalar_scalar execute:
    Initialising k2 to k
    Performing k2 * k_0
    functionObjects::multiply multiply1_scalar_scalar writing field: k2
multiply multiply1_vector_vector execute:
    Initialising U2 to U
    Performing U2 * U_0
    functionObjects::multiply multiply1_vector_vector writing field: U2
multiply multiply1_scalar_vector execute:
    Initialising kU to k
    Performing kU * U
    functionObjects::multiply multiply1_scalar_vector writing field: kU
multiply multiply1_scalar_tensor execute:
    Initialising kU2 to k
    Performing kU2 * U2
    functionObjects::multiply multiply1_scalar_tensor writing field: kU2
momentum momentum1 write:
    Sum of Momentum (volume 0.0001)
        linear  : (-0.0001 4.66005e-21 0)


Writing fields
nearWallFields nearWallFields1 write:
    Sampling fields to 10
    Writing sampled fields to 10
    functionObjects::PecletNo PecletNo1 writing field: PecletNoField
    functionObjects::pressure pressure1 writing field: staticP
    functionObjects::pressure pressure2 writing field: totalP
    functionObjects::pressure pressure4 writing field: totalCoeffP
proudmanAcousticPower proudmanAcousticPower1 write:
    writing field proudmanAcousticPower1:P_A
    writing field proudmanAcousticPower1:L_P

    functionObjects::pow pow1 writing field: powk
    functionObjects::Q Q1 writing field: QField
    functionObjects::randomise randomise1 writing field: URandom

setFlow1:
    setting U and phi
    flow direction: reverse
    Continuity error: max(mag(sum(phi))) = 2.71051e-14

    functionObjects::streamFunction streamFunction1 calculating stream-function
        Zero face: patch: 0 face: 0
    functionObjects::streamFunction streamFunction1 writing field: streamFunc
streamLine streamLine1 write:
    seeded 20 particles
    Tracks:20
    Total samples:200
    Writing data to "/home/iwamoto/Desktop/RAS/cavity/postProcessing/sets/streamLine1/10"
    functionObjects::subtract subtract1 writing field: kDiff
surfaceInterpolate surfaceInterpolate1 write:
        updating field surfaceK
        updating field surfaceP
        updating field surfaceDivU
        updating field surfaceU

    functionObjects::surfaceInterpolate surfaceInterpolate1 writing interpolated surface fields:
        surfaceU
        surfaceP
        surfaceK
        surfaceDivU

    functionObjects::turbulenceFields turbulenceFields1 writing field: turbulenceProperties:nut
    functionObjects::turbulenceFields turbulenceFields1 writing field: turbulenceProperties:nuEff
    functionObjects::turbulenceFields turbulenceFields1 writing field: turbulenceProperties:k
    functionObjects::turbulenceFields turbulenceFields1 writing field: turbulenceProperties:nuTilda
    functionObjects::turbulenceFields turbulenceFields1 writing field: turbulenceProperties:R
    functionObjects::turbulenceFields turbulenceFields1 writing field: turbulenceProperties:L
    functionObjects::turbulenceFields turbulenceFields1 writing field: turbulenceProperties:devReff
    functionObjects::turbulenceFields turbulenceFields1 writing field: turbulenceProperties:omega
    functionObjects::turbulenceFields turbulenceFields1 writing field: turbulenceProperties:epsilon
    functionObjects::turbulenceFields turbulenceFields2 writing field: turbulenceProperties:I
valueAverage: valueAverage1 averages:
    momentum_xMean: -9.99457e-05
    momentum_yMean: 2.27134e-11
    momentum_zMean: 0

volFieldValue volFieldValue1_none_none write:

volFieldValue volFieldValue1_min_none write:
    min(region0) of p = 4.16289e-16
    min(region0) of U = (-1 -0 -0)

volFieldValue volFieldValue1_max_none write:
    max(region0) of p = 1.06818e-14
    max(region0) of U = (-1 -0 -0)

volFieldValue volFieldValue1_sum_none write:
    sum(region0) of p = 2.65189e-12
    sum(region0) of U = (-400 0 0)

volFieldValue volFieldValue1_sumMag_none write:
    sumMag(region0) of p = 2.65189e-12
    sumMag(region0) of U = (400 0 0)

volFieldValue volFieldValue1_average_none write:
    average(region0) of p = 6.62974e-15
    average(region0) of U = (-1 0 0)

volFieldValue volFieldValue1_volAverage_none write:
    volAverage(region0) of p = 6.62974e-15
    volAverage(region0) of U = (-1 0 0)

volFieldValue volFieldValue1_volIntegrate_none write:
    volIntegrate(region0) of p = 6.62974e-19
    volIntegrate(region0) of U = (-0.0001 0 0)

volFieldValue volFieldValue1_CoV_none write:
    CoV(region0) of p = 0.153526
    CoV(region0) of U = (-0 0 0)

volFieldValue volFieldValue1_min_none_cellzone write:
    min(zone1) of p = 6.61669e-16
    min(zone1) of U = (-1 -0 -0)

volFieldValue volFieldValue1_max_none_cellzone write:
    max(zone1) of p = 8.419e-15
    max(zone1) of U = (-1 -0 -0)

volFieldValue volFieldValue1_sum_none_cellzone write:
    sum(zone1) of p = 1.2061e-13
    sum(zone1) of U = (-20 0 0)

volFieldValue volFieldValue1_sumMag_none_cellzone write:
    sumMag(zone1) of p = 1.2061e-13
    sumMag(zone1) of U = (20 0 0)

volFieldValue volFieldValue1_average_none_cellzone write:
    average(zone1) of p = 6.03049e-15
    average(zone1) of U = (-1 0 0)

volFieldValue volFieldValue1_volAverage_none_cellzone write:
    volAverage(zone1) of p = 6.03049e-15
    volAverage(zone1) of U = (-1 0 0)

volFieldValue volFieldValue1_volIntegrate_none_cellzone write:
    volIntegrate(zone1) of p = 3.01525e-20
    volIntegrate(zone1) of U = (-5e-06 0 0)

volFieldValue volFieldValue1_CoV_none_cellzone write:
    CoV(zone1) of p = 0.318783
    CoV(zone1) of U = (-0 0 0)

    functionObjects::vorticity vorticity1 writing field: vorticityField
reference reference1 output:
    sampled value: (-1 -0 -0)

    functionObjects::reference reference1 writing field: diffU
reference reference2 output:
    sampled value: 6.61669e-16

    functionObjects::reference reference2 writing field: diffP
wallShearStress wallShearStress1 write:
    writing field wallShearStress
    min/max(fixedWalls) = (0 0 0), (0 0 0)
writeCellCentres writeCellCentres1 write:
    writing cell-volumes field C to 10
    Writing the x component field of the cell-centres Cx to 10
    Writing the y component field of the cell-centres Cy to 10
    Writing the z component field of the cell-centres Cz to 10
writeCellVolumes writeCellVolumes1 write:
    writing cell-volumes field V to 10
yPlus yPlus1 write:
    writing field yPlus
    patch movingWall y+ : min = 0.223797, max = 0.223797, average = 0.223797
    patch fixedWalls y+ : min = 0.210739, max = 0.223797, average = 0.217072
zeroGradient zeroGradient1 write:
    UzeroGrad
    epsilonzeroGrad
    pzeroGrad
zeroGradient zeroGradient2 write:
    zeroGradient(U)
    zeroGradient(epsilon)
    zeroGradient(p)
End

