/*---------------------------------------------------------------------------*\
| =========                 |                                                 |
| \\      /  F ield         | OpenFOAM: The Open Source CFD Toolbox           |
|  \\    /   O peration     | Version:  2106                                  |
|   \\  /    A nd           | Website:  www.openfoam.com                      |
|    \\/     M anipulation  |                                                 |
\*---------------------------------------------------------------------------*/
Build  : _4a824ac2-20260127 OPENFOAM=2106 patch=260127
Arch   : "LSB;label=32;scalar=64"
Exec   : simpleFoam -parallel
Date   : Jun 04 2026
Time   : 16:19:45
Host   : iwamoto-MS-7D25
PID    : 2984235
I/O    : uncollated
Case   : /home/iwamoto/パック/package01
nProcs : 2
Hosts  :
(
    (iwamoto-MS-7D25 2)
)
Pstream initialized with:
    floatTransfer      : 0
    nProcsSimpleSum    : 0
    commsType          : nonBlocking
    polling iterations : 0
trapFpe: Floating point exception trapping enabled (FOAM_SIGFPE).
fileModificationChecking : Monitoring run-time modified files using timeStampMaster (fileModificationSkew 5, maxFileModificationPolls 20)
allowSystemOperations : Allowing user-supplied system call operations

// * * * * * * * * * * * * * * * * * * * * * * * * * * * * * * * * * * * * * //
Create time

Using #calc at line 8 in file "/home/iwamoto/パック/package01/system/controlDict"
Using #codeStream with "/home/iwamoto/パック/package01/dynamicCode/platforms/linux64GccDPInt32Opt/lib/libcodeStream_0c53cca630e2d3b8d61002ee9768f4e4cbad9def.so"
Using #calc at line 9 in file "/home/iwamoto/パック/package01/system/controlDict"
Using #codeStream with "/home/iwamoto/パック/package01/dynamicCode/platforms/linux64GccDPInt32Opt/lib/libcodeStream_9e9b9cbbb1aad0a99ea703336ee6c93d828b257d.so"
Using #calc at line 10 in file "/home/iwamoto/パック/package01/system/controlDict"
Using #codeStream with "/home/iwamoto/パック/package01/dynamicCode/platforms/linux64GccDPInt32Opt/lib/libcodeStream_293e1c47b244371e91d0c564c6bf7b0f2ccb303f.so"
Using #calc at line 11 in file "/home/iwamoto/パック/package01/system/controlDict"
Using #codeStream with "/home/iwamoto/パック/package01/dynamicCode/platforms/linux64GccDPInt32Opt/lib/libcodeStream_4fc78887efee90d0a6c37cea02d85c79d0557637.so"
Using #calc at line 12 in file "/home/iwamoto/パック/package01/system/controlDict"
Using #codeStream with "/home/iwamoto/パック/package01/dynamicCode/platforms/linux64GccDPInt32Opt/lib/libcodeStream_a4623733b6aabeec62dc7f64caca27c7a132b758.so"
Using #calc at line 14 in file "/home/iwamoto/パック/package01/system/controlDict"
Using #codeStream with "/home/iwamoto/パック/package01/dynamicCode/platforms/linux64GccDPInt32Opt/lib/libcodeStream_39507f205b1751ffb5eb1e2c0ad7a1d737e5ffb2.so"
Using #calc at line 15 in file "/home/iwamoto/パック/package01/system/controlDict"
Using #codeStream with "/home/iwamoto/パック/package01/dynamicCode/platforms/linux64GccDPInt32Opt/lib/libcodeStream_3fc9ae8aff4391d897c64b362c81249c650ed9ee.so"
Create mesh for time = 0
Using #calc at line 8 in file "/home/iwamoto/パック/package01/system/fvSchemes"
Using #calc at line 9 in file "/home/iwamoto/パック/package01/system/fvSchemes"
Using #calc at line 10 in file "/home/iwamoto/パック/package01/system/fvSchemes"
Using #calc at line 11 in file "/home/iwamoto/パック/package01/system/fvSchemes"
Using #calc at line 12 in file "/home/iwamoto/パック/package01/system/fvSchemes"
Using #calc at line 14 in file "/home/iwamoto/パック/package01/system/fvSchemes"
Using #calc at line 15 in file "/home/iwamoto/パック/package01/system/fvSchemes"
Using #calc at line 8 in file "/home/iwamoto/パック/package01/system/fvSolution"
Using #calc at line 9 in file "/home/iwamoto/パック/package01/system/fvSolution"
Using #calc at line 10 in file "/home/iwamoto/パック/package01/system/fvSolution"
Using #calc at line 11 in file "/home/iwamoto/パック/package01/system/fvSolution"
Using #calc at line 12 in file "/home/iwamoto/パック/package01/system/fvSolution"
Using #calc at line 14 in file "/home/iwamoto/パック/package01/system/fvSolution"
Using #calc at line 15 in file "/home/iwamoto/パック/package01/system/fvSolution"


SIMPLE: convergence criteria
    field p	 tolerance 0.001
    field U	 tolerance 0.001
    field "(k|epsilon)"	 tolerance 0.001

Reading field p

Reading field U

Reading/calculating face flux field phi

Using #calc at line 8 in file "/home/iwamoto/パック/package01/constant/transportProperties"
Using #calc at line 9 in file "/home/iwamoto/パック/package01/constant/transportProperties"
Using #calc at line 10 in file "/home/iwamoto/パック/package01/constant/transportProperties"
Using #calc at line 11 in file "/home/iwamoto/パック/package01/constant/transportProperties"
Using #calc at line 12 in file "/home/iwamoto/パック/package01/constant/transportProperties"
Using #calc at line 14 in file "/home/iwamoto/パック/package01/constant/transportProperties"
Using #calc at line 15 in file "/home/iwamoto/パック/package01/constant/transportProperties"
Selecting incompressible transport model Newtonian
Using #calc at line 8 in file "/home/iwamoto/パック/package01/constant/turbulenceProperties"
Using #calc at line 9 in file "/home/iwamoto/パック/package01/constant/turbulenceProperties"
Using #calc at line 10 in file "/home/iwamoto/パック/package01/constant/turbulenceProperties"
Using #calc at line 11 in file "/home/iwamoto/パック/package01/constant/turbulenceProperties"
Using #calc at line 12 in file "/home/iwamoto/パック/package01/constant/turbulenceProperties"
Using #calc at line 14 in file "/home/iwamoto/パック/package01/constant/turbulenceProperties"
Using #calc at line 15 in file "/home/iwamoto/パック/package01/constant/turbulenceProperties"
Selecting turbulence model type RAS
Using #calc at line 8 in file "/home/iwamoto/パック/package01/constant/turbulenceProperties"
Using #calc at line 9 in file "/home/iwamoto/パック/package01/constant/turbulenceProperties"
Using #calc at line 10 in file "/home/iwamoto/パック/package01/constant/turbulenceProperties"
Using #calc at line 11 in file "/home/iwamoto/パック/package01/constant/turbulenceProperties"
Using #calc at line 12 in file "/home/iwamoto/パック/package01/constant/turbulenceProperties"
Using #calc at line 14 in file "/home/iwamoto/パック/package01/constant/turbulenceProperties"
Using #calc at line 15 in file "/home/iwamoto/パック/package01/constant/turbulenceProperties"
Selecting RAS turbulence model kEpsilon
Using #calc at line 8 in file "/home/iwamoto/パック/package01/constant/turbulenceProperties"
Using #calc at line 9 in file "/home/iwamoto/パック/package01/constant/turbulenceProperties"
Using #calc at line 10 in file "/home/iwamoto/パック/package01/constant/turbulenceProperties"
Using #calc at line 11 in file "/home/iwamoto/パック/package01/constant/turbulenceProperties"
Using #calc at line 12 in file "/home/iwamoto/パック/package01/constant/turbulenceProperties"
Using #calc at line 14 in file "/home/iwamoto/パック/package01/constant/turbulenceProperties"
Using #calc at line 15 in file "/home/iwamoto/パック/package01/constant/turbulenceProperties"
RAS
{
    RASModel        kEpsilon;
    turbulence      on;
    printCoeffs     on;
    Cmu             0.09;
    C1              1.44;
    C2              1.92;
    C3              0;
    sigmak          1;
    sigmaEps        1.3;
}

No MRF models present

Creating finite volume options from "constant/fvOptions"

Using #calc at line 8 in file "/home/iwamoto/パック/package01/constant/fvOptions"
Using #calc at line 9 in file "/home/iwamoto/パック/package01/constant/fvOptions"
Using #calc at line 10 in file "/home/iwamoto/パック/package01/constant/fvOptions"
Using #calc at line 11 in file "/home/iwamoto/パック/package01/constant/fvOptions"
Using #calc at line 12 in file "/home/iwamoto/パック/package01/constant/fvOptions"
Using #calc at line 14 in file "/home/iwamoto/パック/package01/constant/fvOptions"
Using #calc at line 15 in file "/home/iwamoto/パック/package01/constant/fvOptions"
Selecting finite volume options type explicitPorositySource
    Source: porousOption
    - selecting cells using cellZone porous
    - selected 726003 cell(s) with volume 1.45274e-05
Porosity region porousOption:
    selecting model: DarcyForchheimer
    creating porous zone: porous
    origin: (0 0 0) e1: (1 0 0) e3: (0 0 1)
    local bounds: (0.0799482 0.004 0.0894006)


Starting time loop

Time = 0.0001

smoothSolver:  Solving for Ux, Initial residual = 1, Final residual = 0.031923, No Iterations 2
smoothSolver:  Solving for Uy, Initial residual = 1, Final residual = 0.0305759, No Iterations 2
smoothSolver:  Solving for Uz, Initial residual = 1, Final residual = 0.0885764, No Iterations 1
GAMG:  Solving for p, Initial residual = 1, Final residual = 0.0591836, No Iterations 20
time step continuity errors : sum local = 5.59162e-05, global = -8.44928e-07, cumulative = -8.44928e-07
smoothSolver:  Solving for epsilon, Initial residual = 0.120126, Final residual = 0.00622115, No Iterations 3
smoothSolver:  Solving for k, Initial residual = 1, Final residual = 0.0764253, No Iterations 4
ExecutionTime = 3.87 s  ClockTime = 4 s

Time = 0.0002

smoothSolver:  Solving for Ux, Initial residual = 0.296774, Final residual = 0.0180926, No Iterations 3
smoothSolver:  Solving for Uy, Initial residual = 0.402541, Final residual = 0.0326992, No Iterations 2
smoothSolver:  Solving for Uz, Initial residual = 0.129573, Final residual = 0.0109021, No Iterations 3
GAMG:  Solving for p, Initial residual = 0.091242, Final residual = 0.0061155, No Iterations 10
time step continuity errors : sum local = 0.000888499, global = -1.29715e-06, cumulative = -2.14207e-06
smoothSolver:  Solving for epsilon, Initial residual = 0.121243, Final residual = 0.0101968, No Iterations 4
smoothSolver:  Solving for k, Initial residual = 0.432471, Final residual = 0.0344216, No Iterations 4
ExecutionTime = 5.33 s  ClockTime = 6 s

Time = 0.0003

smoothSolver:  Solving for Ux, Initial residual = 0.181853, Final residual = 0.0130894, No Iterations 3
smoothSolver:  Solving for Uy, Initial residual = 0.267063, Final residual = 0.0256327, No Iterations 2
smoothSolver:  Solving for Uz, Initial residual = 0.115623, Final residual = 0.00894767, No Iterations 4
GAMG:  Solving for p, Initial residual = 0.0475459, Final residual = 0.00423639, No Iterations 7
time step continuity errors : sum local = 0.000904388, global = -3.393e-05, cumulative = -3.60721e-05
smoothSolver:  Solving for epsilon, Initial residual = 0.122729, Final residual = 0.00980267, No Iterations 4
smoothSolver:  Solving for k, Initial residual = 0.24367, Final residual = 0.0196015, No Iterations 4
ExecutionTime = 6.68 s  ClockTime = 7 s

Time = 0.0004

smoothSolver:  Solving for Ux, Initial residual = 0.093395, Final residual = 0.00468298, No Iterations 4
smoothSolver:  Solving for Uy, Initial residual = 0.144389, Final residual = 0.0111766, No Iterations 3
smoothSolver:  Solving for Uz, Initial residual = 0.0697567, Final residual = 0.00558851, No Iterations 4
GAMG:  Solving for p, Initial residual = 0.050967, Final residual = 0.00483859, No Iterations 8
time step continuity errors : sum local = 0.000744215, global = -1.66664e-05, cumulative = -5.27386e-05
smoothSolver:  Solving for epsilon, Initial residual = 0.0853019, Final residual = 0.00685105, No Iterations 4
smoothSolver:  Solving for k, Initial residual = 0.148083, Final residual = 0.0113483, No Iterations 4
ExecutionTime = 8.1 s  ClockTime = 9 s

Time = 0.0005

smoothSolver:  Solving for Ux, Initial residual = 0.0740221, Final residual = 0.00688915, No Iterations 3
smoothSolver:  Solving for Uy, Initial residual = 0.151214, Final residual = 0.0104518, No Iterations 3
smoothSolver:  Solving for Uz, Initial residual = 0.0248857, Final residual = 0.00160839, No Iterations 4
GAMG:  Solving for p, Initial residual = 0.135591, Final residual = 0.00819159, No Iterations 12
time step continuity errors : sum local = 0.000517066, global = 9.83644e-06, cumulative = -4.29021e-05
smoothSolver:  Solving for epsilon, Initial residual = 0.0629212, Final residual = 0.00493501, No Iterations 4
smoothSolver:  Solving for k, Initial residual = 0.0985322, Final residual = 0.006991, No Iterations 4
ExecutionTime = 9.66 s  ClockTime = 10 s

Time = 0.0006

smoothSolver:  Solving for Ux, Initial residual = 0.0647358, Final residual = 0.00583561, No Iterations 3
smoothSolver:  Solving for Uy, Initial residual = 0.135451, Final residual = 0.010334, No Iterations 3
smoothSolver:  Solving for Uz, Initial residual = 0.0180454, Final residual = 0.00115513, No Iterations 4
GAMG:  Solving for p, Initial residual = 0.239129, Final residual = 0.0203301, No Iterations 5
time step continuity errors : sum local = 0.000626509, global = -1.24015e-05, cumulative = -5.53036e-05
smoothSolver:  Solving for epsilon, Initial residual = 0.0507627, Final residual = 0.00376105, No Iterations 4
smoothSolver:  Solving for k, Initial residual = 0.0737476, Final residual = 0.0046705, No Iterations 4
ExecutionTime = 10.94 s  ClockTime = 11 s

Time = 0.0007

smoothSolver:  Solving for Ux, Initial residual = 0.0541175, Final residual = 0.00276649, No Iterations 4
smoothSolver:  Solving for Uy, Initial residual = 0.107226, Final residual = 0.0103676, No Iterations 3
smoothSolver:  Solving for Uz, Initial residual = 0.0172426, Final residual = 0.00138126, No Iterations 4
GAMG:  Solving for p, Initial residual = 0.157588, Final residual = 0.00873501, No Iterations 5
time step continuity errors : sum local = 0.000331002, global = -8.8323e-06, cumulative = -6.41359e-05
smoothSolver:  Solving for epsilon, Initial residual = 0.0412196, Final residual = 0.00290354, No Iterations 4
smoothSolver:  Solving for k, Initial residual = 0.0565837, Final residual = 0.00332362, No Iterations 4
ExecutionTime = 12.22 s  ClockTime = 13 s

Time = 0.0008

smoothSolver:  Solving for Ux, Initial residual = 0.0447349, Final residual = 0.00262602, No Iterations 4
smoothSolver:  Solving for Uy, Initial residual = 0.087708, Final residual = 0.00495342, No Iterations 4
smoothSolver:  Solving for Uz, Initial residual = 0.0118143, Final residual = 0.000950762, No Iterations 4
GAMG:  Solving for p, Initial residual = 0.178692, Final residual = 0.0162052, No Iterations 5
time step continuity errors : sum local = 0.000401861, global = 2.73044e-05, cumulative = -3.68316e-05
smoothSolver:  Solving for epsilon, Initial residual = 0.03321, Final residual = 0.00224343, No Iterations 4
smoothSolver:  Solving for k, Initial residual = 0.0443515, Final residual = 0.00251239, No Iterations 4
ExecutionTime = 13.52 s  ClockTime = 14 s

Time = 0.0009

smoothSolver:  Solving for Ux, Initial residual = 0.0417919, Final residual = 0.00250267, No Iterations 4
smoothSolver:  Solving for Uy, Initial residual = 0.0784741, Final residual = 0.00418862, No Iterations 4
smoothSolver:  Solving for Uz, Initial residual = 0.00898037, Final residual = 0.000593676, No Iterations 4
GAMG:  Solving for p, Initial residual = 0.111439, Final residual = 0.00724992, No Iterations 5
time step continuity errors : sum local = 0.000253307, global = -1.9702e-05, cumulative = -5.65336e-05
smoothSolver:  Solving for epsilon, Initial residual = 0.0269849, Final residual = 0.00174468, No Iterations 4
smoothSolver:  Solving for k, Initial residual = 0.0359697, Final residual = 0.00202002, No Iterations 4
ExecutionTime = 14.81 s  ClockTime = 15 s

Time = 0.001

smoothSolver:  Solving for Ux, Initial residual = 0.0384196, Final residual = 0.00234864, No Iterations 4
smoothSolver:  Solving for Uy, Initial residual = 0.0698605, Final residual = 0.00361144, No Iterations 4
smoothSolver:  Solving for Uz, Initial residual = 0.00782018, Final residual = 0.000491094, No Iterations 4
GAMG:  Solving for p, Initial residual = 0.0874297, Final residual = 0.00667221, No Iterations 4
time step continuity errors : sum local = 0.000253759, global = 9.87437e-06, cumulative = -4.66592e-05
smoothSolver:  Solving for epsilon, Initial residual = 0.0220668, Final residual = 0.00138056, No Iterations 4
smoothSolver:  Solving for k, Initial residual = 0.0302924, Final residual = 0.00171391, No Iterations 4
ExecutionTime = 16.06 s  ClockTime = 17 s

Time = 0.0011

smoothSolver:  Solving for Ux, Initial residual = 0.0340689, Final residual = 0.00212436, No Iterations 4
smoothSolver:  Solving for Uy, Initial residual = 0.0632085, Final residual = 0.00333463, No Iterations 4
smoothSolver:  Solving for Uz, Initial residual = 0.00834677, Final residual = 0.000552005, No Iterations 4
GAMG:  Solving for p, Initial residual = 0.0693822, Final residual = 0.00332667, No Iterations 5
time step continuity errors : sum local = 0.000139889, global = 7.03147e-06, cumulative = -3.96277e-05
smoothSolver:  Solving for epsilon, Initial residual = 0.0184288, Final residual = 0.00111931, No Iterations 4
smoothSolver:  Solving for k, Initial residual = 0.0266153, Final residual = 0.00151508, No Iterations 4
bounding k, min: -0.000797831 max: 421.654 average: 4.30728
ExecutionTime = 17.45 s  ClockTime = 18 s

Time = 0.0012

smoothSolver:  Solving for Ux, Initial residual = 0.0306719, Final residual = 0.00198114, No Iterations 4
smoothSolver:  Solving for Uy, Initial residual = 0.0558138, Final residual = 0.00320061, No Iterations 4
smoothSolver:  Solving for Uz, Initial residual = 0.00783084, Final residual = 0.000522192, No Iterations 4
GAMG:  Solving for p, Initial residual = 0.0618345, Final residual = 0.00566787, No Iterations 7
time step continuity errors : sum local = 0.000230942, global = 2.31504e-06, cumulative = -3.73127e-05
smoothSolver:  Solving for epsilon, Initial residual = 0.015876, Final residual = 0.000933986, No Iterations 4
bounding epsilon, min: -44.2105 max: 9.28604e+07 average: 51472.6
smoothSolver:  Solving for k, Initial residual = 0.0243474, Final residual = 0.00138161, No Iterations 4
bounding k, min: -5.42287e-05 max: 423.405 average: 4.36955
ExecutionTime = 18.87 s  ClockTime = 19 s

Time = 0.0013

smoothSolver:  Solving for Ux, Initial residual = 0.0293442, Final residual = 0.00190053, No Iterations 4
smoothSolver:  Solving for Uy, Initial residual = 0.0538231, Final residual = 0.00308793, No Iterations 4
smoothSolver:  Solving for Uz, Initial residual = 0.00651638, Final residual = 0.000436616, No Iterations 4
GAMG:  Solving for p, Initial residual = 0.0671138, Final residual = 0.0027172, No Iterations 7
time step continuity errors : sum local = 9.81496e-05, global = 3.25244e-06, cumulative = -3.40603e-05
smoothSolver:  Solving for epsilon, Initial residual = 0.0140666, Final residual = 0.000806565, No Iterations 4
bounding epsilon, min: -22.3593 max: 9.82131e+07 average: 52809.5
smoothSolver:  Solving for k, Initial residual = 0.0227519, Final residual = 0.00129213, No Iterations 4
bounding k, min: -0.000141932 max: 431.106 average: 4.41799
ExecutionTime = 20.29 s  ClockTime = 21 s

Time = 0.0014

smoothSolver:  Solving for Ux, Initial residual = 0.0284168, Final residual = 0.00187672, No Iterations 4
smoothSolver:  Solving for Uy, Initial residual = 0.0512256, Final residual = 0.00297547, No Iterations 4
smoothSolver:  Solving for Uz, Initial residual = 0.00573861, Final residual = 0.000384222, No Iterations 4
GAMG:  Solving for p, Initial residual = 0.0643172, Final residual = 0.00539892, No Iterations 3
time step continuity errors : sum local = 0.000181888, global = 5.6411e-07, cumulative = -3.34962e-05
smoothSolver:  Solving for epsilon, Initial residual = 0.0127495, Final residual = 0.000723555, No Iterations 4
bounding epsilon, min: -9.29578 max: 1.01231e+08 average: 53759
smoothSolver:  Solving for k, Initial residual = 0.0214609, Final residual = 0.0012318, No Iterations 4
bounding k, min: -0.000128869 max: 432.232 average: 4.45466
ExecutionTime = 21.54 s  ClockTime = 22 s

Time = 0.0015

smoothSolver:  Solving for Ux, Initial residual = 0.0274759, Final residual = 0.00186846, No Iterations 4
smoothSolver:  Solving for Uy, Initial residual = 0.0479735, Final residual = 0.00286142, No Iterations 4
smoothSolver:  Solving for Uz, Initial residual = 0.00528969, Final residual = 0.00035551, No Iterations 4
GAMG:  Solving for p, Initial residual = 0.0626047, Final residual = 0.00620168, No Iterations 2
time step continuity errors : sum local = 0.000202523, global = -1.93291e-06, cumulative = -3.54291e-05
smoothSolver:  Solving for epsilon, Initial residual = 0.0119178, Final residual = 0.000676639, No Iterations 4
smoothSolver:  Solving for k, Initial residual = 0.0203235, Final residual = 0.00118551, No Iterations 4
bounding k, min: -0.000103176 max: 429.003 average: 4.48119
ExecutionTime = 22.73 s  ClockTime = 23 s

Time = 0.0016

smoothSolver:  Solving for Ux, Initial residual = 0.0265875, Final residual = 0.00185204, No Iterations 4
smoothSolver:  Solving for Uy, Initial residual = 0.0456187, Final residual = 0.00276478, No Iterations 4
smoothSolver:  Solving for Uz, Initial residual = 0.00492915, Final residual = 0.000332177, No Iterations 4
GAMG:  Solving for p, Initial residual = 0.0601413, Final residual = 0.00429717, No Iterations 4
time step continuity errors : sum local = 0.000140024, global = -5.97984e-07, cumulative = -3.6027e-05
smoothSolver:  Solving for epsilon, Initial residual = 0.0115616, Final residual = 0.000665189, No Iterations 4
bounding epsilon, min: -73988.7 max: 1.00818e+08 average: 54739.2
smoothSolver:  Solving for k, Initial residual = 0.0194157, Final residual = 0.00115459, No Iterations 4
bounding k, min: -4.3432e-05 max: 421.007 average: 4.49895
ExecutionTime = 24.02 s  ClockTime = 24 s

Time = 0.0017

smoothSolver:  Solving for Ux, Initial residual = 0.0258979, Final residual = 0.00182765, No Iterations 4
smoothSolver:  Solving for Uy, Initial residual = 0.0441826, Final residual = 0.00267884, No Iterations 4
smoothSolver:  Solving for Uz, Initial residual = 0.00462297, Final residual = 0.000310937, No Iterations 4
GAMG:  Solving for p, Initial residual = 0.0575133, Final residual = 0.00443539, No Iterations 3
time step continuity errors : sum local = 0.000146931, global = -3.0473e-06, cumulative = -3.90743e-05
smoothSolver:  Solving for epsilon, Initial residual = 0.0115305, Final residual = 0.000668153, No Iterations 4
bounding epsilon, min: -53231.2 max: 9.79387e+07 average: 54888.7
smoothSolver:  Solving for k, Initial residual = 0.0186875, Final residual = 0.00113626, No Iterations 4
bounding k, min: -3.70981e-05 max: 409.291 average: 4.50871
ExecutionTime = 25.27 s  ClockTime = 26 s

Time = 0.0018

smoothSolver:  Solving for Ux, Initial residual = 0.0252443, Final residual = 0.00180409, No Iterations 4
smoothSolver:  Solving for Uy, Initial residual = 0.0431555, Final residual = 0.00263531, No Iterations 4
smoothSolver:  Solving for Uz, Initial residual = 0.00436144, Final residual = 0.000293388, No Iterations 4
GAMG:  Solving for p, Initial residual = 0.0565371, Final residual = 0.00540834, No Iterations 2
time step continuity errors : sum local = 0.000179901, global = -2.31436e-06, cumulative = -4.13887e-05
smoothSolver:  Solving for epsilon, Initial residual = 0.0115559, Final residual = 0.000677462, No Iterations 4
bounding epsilon, min: -73438.4 max: 9.39058e+07 average: 54874
smoothSolver:  Solving for k, Initial residual = 0.0181646, Final residual = 0.0011179, No Iterations 4
ExecutionTime = 26.46 s  ClockTime = 27 s

Time = 0.0019

smoothSolver:  Solving for Ux, Initial residual = 0.0243813, Final residual = 0.00176911, No Iterations 4
smoothSolver:  Solving for Uy, Initial residual = 0.0423786, Final residual = 0.00261488, No Iterations 4
smoothSolver:  Solving for Uz, Initial residual = 0.00416298, Final residual = 0.000281083, No Iterations 4
GAMG:  Solving for p, Initial residual = 0.0555537, Final residual = 0.00431414, No Iterations 3
time step continuity errors : sum local = 0.000144144, global = -2.97917e-06, cumulative = -4.43679e-05
smoothSolver:  Solving for epsilon, Initial residual = 0.0115789, Final residual = 0.000684841, No Iterations 4
bounding epsilon, min: -87141.4 max: 8.89992e+07 average: 54732.5
smoothSolver:  Solving for k, Initial residual = 0.0176911, Final residual = 0.00109991, No Iterations 4
ExecutionTime = 27.68 s  ClockTime = 28 s

Time = 0.002

smoothSolver:  Solving for Ux, Initial residual = 0.0239126, Final residual = 0.00174776, No Iterations 4
smoothSolver:  Solving for Uy, Initial residual = 0.0417307, Final residual = 0.00259174, No Iterations 4
smoothSolver:  Solving for Uz, Initial residual = 0.00399594, Final residual = 0.000268663, No Iterations 4
GAMG:  Solving for p, Initial residual = 0.0563836, Final residual = 0.00433717, No Iterations 3
time step continuity errors : sum local = 0.000146342, global = -2.19889e-06, cumulative = -4.65668e-05
smoothSolver:  Solving for epsilon, Initial residual = 0.0115263, Final residual = 0.000687283, No Iterations 4
bounding epsilon, min: -29193.5 max: 8.3765e+07 average: 54487.6
smoothSolver:  Solving for k, Initial residual = 0.0171988, Final residual = 0.00107948, No Iterations 4
ExecutionTime = 28.91 s  ClockTime = 29 s

Time = 0.0021

smoothSolver:  Solving for Ux, Initial residual = 0.0233499, Final residual = 0.00172048, No Iterations 4
smoothSolver:  Solving for Uy, Initial residual = 0.0411295, Final residual = 0.00258029, No Iterations 4
smoothSolver:  Solving for Uz, Initial residual = 0.00387153, Final residual = 0.000258992, No Iterations 4
GAMG:  Solving for p, Initial residual = 0.0566736, Final residual = 0.00376271, No Iterations 3
time step continuity errors : sum local = 0.000128375, global = -2.24867e-06, cumulative = -4.88154e-05
smoothSolver:  Solving for epsilon, Initial residual = 0.0113481, Final residual = 0.000685621, No Iterations 4
bounding epsilon, min: -48589.3 max: 7.84544e+07 average: 54169.7
smoothSolver:  Solving for k, Initial residual = 0.0167103, Final residual = 0.00105979, No Iterations 4
ExecutionTime = 30.16 s  ClockTime = 31 s


    From virtual bool Foam::regIOobject::readIfModified()
    in file db/regIOobject/regIOobjectRead.C at line 282
        Re-reading object fvSolution from file "/home/iwamoto/パック/package01/system/fvSolution"
Using #calc at line 8 in file "/home/iwamoto/パック/package01/system/fvSolution"
Using #calc at line 9 in file "/home/iwamoto/パック/package01/system/fvSolution"
Using #calc at line 10 in file "/home/iwamoto/パック/package01/system/fvSolution"
Using #calc at line 11 in file "/home/iwamoto/パック/package01/system/fvSolution"
Using #calc at line 12 in file "/home/iwamoto/パック/package01/system/fvSolution"
Using #calc at line 14 in file "/home/iwamoto/パック/package01/system/fvSolution"
Using #calc at line 15 in file "/home/iwamoto/パック/package01/system/fvSolution"
Time = 0.0022

smoothSolver:  Solving for Ux, Initial residual = 0.0227388, Final residual = 0.00168751, No Iterations 4
smoothSolver:  Solving for Uy, Initial residual = 0.0405505, Final residual = 0.00257457, No Iterations 4
smoothSolver:  Solving for Uz, Initial residual = 0.00375833, Final residual = 0.00025066, No Iterations 4
GAMG:  Solving for p, Initial residual = 0.0574281, Final residual = 0.00384513, No Iterations 3
time step continuity errors : sum local = 0.000133053, global = -2.09753e-06, cumulative = -5.0913e-05
smoothSolver:  Solving for epsilon, Initial residual = 0.0110689, Final residual = 0.000679269, No Iterations 4
bounding epsilon, min: -25684.2 max: 7.34577e+07 average: 53803.9
smoothSolver:  Solving for k, Initial residual = 0.0162209, Final residual = 0.00104428, No Iterations 4
ExecutionTime = 31.38 s  ClockTime = 32 s

Time = 0.0023

smoothSolver:  Solving for Ux, Initial residual = 0.0222141, Final residual = 0.00165296, No Iterations 4
smoothSolver:  Solving for Uy, Initial residual = 0.0400055, Final residual = 0.00256493, No Iterations 4
smoothSolver:  Solving for Uz, Initial residual = 0.00365331, Final residual = 0.000242754, No Iterations 4
GAMG:  Solving for p, Initial residual = 0.0601383, Final residual = 0.00473775, No Iterations 3
time step continuity errors : sum local = 0.000166647, global = -1.84654e-06, cumulative = -5.27595e-05
smoothSolver:  Solving for epsilon, Initial residual = 0.0107391, Final residual = 0.000668075, No Iterations 4
bounding epsilon, min: -18918.9 max: 6.85795e+07 average: 53408.9
smoothSolver:  Solving for k, Initial residual = 0.0157498, Final residual = 0.00103259, No Iterations 4
ExecutionTime = 32.62 s  ClockTime = 33 s

Time = 0.0024

smoothSolver:  Solving for Ux, Initial residual = 0.0218302, Final residual = 0.0016209, No Iterations 4
smoothSolver:  Solving for Uy, Initial residual = 0.0392508, Final residual = 0.00255038, No Iterations 4
smoothSolver:  Solving for Uz, Initial residual = 0.00354586, Final residual = 0.000234653, No Iterations 4
GAMG:  Solving for p, Initial residual = 0.0635777, Final residual = 0.0055293, No Iterations 3
time step continuity errors : sum local = 0.000198348, global = -1.57609e-06, cumulative = -5.43356e-05
smoothSolver:  Solving for epsilon, Initial residual = 0.0103705, Final residual = 0.000653675, No Iterations 4
bounding epsilon, min: -60994.9 max: 6.39359e+07 average: 52993.3
smoothSolver:  Solving for k, Initial residual = 0.0153206, Final residual = 0.00102595, No Iterations 4
ExecutionTime = 33.84 s  ClockTime = 34 s

Time = 0.0025

smoothSolver:  Solving for Ux, Initial residual = 0.0216277, Final residual = 0.00159448, No Iterations 4
smoothSolver:  Solving for Uy, Initial residual = 0.0385528, Final residual = 0.00251807, No Iterations 4
smoothSolver:  Solving for Uz, Initial residual = 0.0034219, Final residual = 0.000225269, No Iterations 4
GAMG:  Solving for p, Initial residual = 0.06805, Final residual = 0.00647639, No Iterations 3
time step continuity errors : sum local = 0.000237047, global = -1.23409e-06, cumulative = -5.55697e-05
smoothSolver:  Solving for epsilon, Initial residual = 0.00997392, Final residual = 0.000636966, No Iterations 4
bounding epsilon, min: -4046.72 max: 5.96121e+07 average: 52564.2
smoothSolver:  Solving for k, Initial residual = 0.0149432, Final residual = 0.00101926, No Iterations 4
ExecutionTime = 35.07 s  ClockTime = 36 s

Time = 0.0026

smoothSolver:  Solving for Ux, Initial residual = 0.0214885, Final residual = 0.00156771, No Iterations 4
smoothSolver:  Solving for Uy, Initial residual = 0.0377179, Final residual = 0.00246611, No Iterations 4
smoothSolver:  Solving for Uz, Initial residual = 0.00329592, Final residual = 0.000215921, No Iterations 4
GAMG:  Solving for p, Initial residual = 0.0728886, Final residual = 0.00726499, No Iterations 3
time step continuity errors : sum local = 0.000271798, global = -7.88506e-07, cumulative = -5.63582e-05
smoothSolver:  Solving for epsilon, Initial residual = 0.0095435, Final residual = 0.00061786, No Iterations 4
bounding epsilon, min: -13999.7 max: 5.56091e+07 average: 52128.8
smoothSolver:  Solving for k, Initial residual = 0.0146283, Final residual = 0.00101186, No Iterations 4
ExecutionTime = 36.29 s  ClockTime = 37 s

Time = 0.0027

smoothSolver:  Solving for Ux, Initial residual = 0.0212971, Final residual = 0.00153342, No Iterations 4
smoothSolver:  Solving for Uy, Initial residual = 0.0367404, Final residual = 0.00239736, No Iterations 4
smoothSolver:  Solving for Uz, Initial residual = 0.00319918, Final residual = 0.000208808, No Iterations 4
GAMG:  Solving for p, Initial residual = 0.0769364, Final residual = 0.00712882, No Iterations 3
time step continuity errors : sum local = 0.00027421, global = -3.48589e-07, cumulative = -5.67068e-05
smoothSolver:  Solving for epsilon, Initial residual = 0.00910085, Final residual = 0.000596582, No Iterations 4
bounding epsilon, min: -41704.7 max: 5.19082e+07 average: 51696.8
smoothSolver:  Solving for k, Initial residual = 0.0143579, Final residual = 0.00100396, No Iterations 4
ExecutionTime = 37.51 s  ClockTime = 38 s

Time = 0.0028

smoothSolver:  Solving for Ux, Initial residual = 0.0211175, Final residual = 0.00149909, No Iterations 4
smoothSolver:  Solving for Uy, Initial residual = 0.0356891, Final residual = 0.0023166, No Iterations 4
smoothSolver:  Solving for Uz, Initial residual = 0.00311241, Final residual = 0.000202364, No Iterations 4
GAMG:  Solving for p, Initial residual = 0.0797667, Final residual = 0.00767646, No Iterations 3
time step continuity errors : sum local = 0.000304066, global = 9.10495e-08, cumulative = -5.66157e-05
smoothSolver:  Solving for epsilon, Initial residual = 0.00865634, Final residual = 0.000573616, No Iterations 4
bounding epsilon, min: -10587.7 max: 4.8543e+07 average: 51273.4
smoothSolver:  Solving for k, Initial residual = 0.0141073, Final residual = 0.000995464, No Iterations 4
ExecutionTime = 38.73 s  ClockTime = 39 s

Time = 0.0029

smoothSolver:  Solving for Ux, Initial residual = 0.0210044, Final residual = 0.00146557, No Iterations 4
smoothSolver:  Solving for Uy, Initial residual = 0.0346192, Final residual = 0.00222229, No Iterations 4
smoothSolver:  Solving for Uz, Initial residual = 0.00302698, Final residual = 0.000196005, No Iterations 4
GAMG:  Solving for p, Initial residual = 0.0827535, Final residual = 0.00818334, No Iterations 3
time step continuity errors : sum local = 0.000334276, global = 5.49498e-07, cumulative = -5.60662e-05
smoothSolver:  Solving for epsilon, Initial residual = 0.00821777, Final residual = 0.000549214, No Iterations 4
bounding epsilon, min: -8569.83 max: 4.55103e+07 average: 50861.6
smoothSolver:  Solving for k, Initial residual = 0.0138815, Final residual = 0.000985982, No Iterations 4
ExecutionTime = 39.95 s  ClockTime = 40 s

Time = 0.003

smoothSolver:  Solving for Ux, Initial residual = 0.0209734, Final residual = 0.00143062, No Iterations 4
smoothSolver:  Solving for Uy, Initial residual = 0.0336069, Final residual = 0.00212234, No Iterations 4
smoothSolver:  Solving for Uz, Initial residual = 0.0029461, Final residual = 0.000189833, No Iterations 4
GAMG:  Solving for p, Initial residual = 0.0869776, Final residual = 0.00846847, No Iterations 3
time step continuity errors : sum local = 0.000356952, global = 1.02687e-06, cumulative = -5.50394e-05
smoothSolver:  Solving for epsilon, Initial residual = 0.0077861, Final residual = 0.000524144, No Iterations 4
bounding epsilon, min: -19538.6 max: 4.27945e+07 average: 50461.8
smoothSolver:  Solving for k, Initial residual = 0.0136781, Final residual = 0.000975887, No Iterations 4
ExecutionTime = 41.18 s  ClockTime = 42 s

Time = 0.0031

smoothSolver:  Solving for Ux, Initial residual = 0.0209443, Final residual = 0.00139665, No Iterations 4
smoothSolver:  Solving for Uy, Initial residual = 0.0326887, Final residual = 0.00201772, No Iterations 4
smoothSolver:  Solving for Uz, Initial residual = 0.00287073, Final residual = 0.000183892, No Iterations 4
GAMG:  Solving for p, Initial residual = 0.0916848, Final residual = 0.00845576, No Iterations 3
time step continuity errors : sum local = 0.000368266, global = 1.52068e-06, cumulative = -5.35187e-05
smoothSolver:  Solving for epsilon, Initial residual = 0.00737682, Final residual = 0.000498825, No Iterations 4
bounding epsilon, min: -18156.2 max: 4.03738e+07 average: 50073.8
smoothSolver:  Solving for k, Initial residual = 0.0135049, Final residual = 0.000965709, No Iterations 4
ExecutionTime = 42.43 s  ClockTime = 43 s


    From virtual bool Foam::regIOobject::readIfModified()
    in file db/regIOobject/regIOobjectRead.C at line 282
        Re-reading object fvSolution from file "/home/iwamoto/パック/package01/system/fvSolution"
Using #calc at line 8 in file "/home/iwamoto/パック/package01/system/fvSolution"
Using #calc at line 9 in file "/home/iwamoto/パック/package01/system/fvSolution"
Using #calc at line 10 in file "/home/iwamoto/パック/package01/system/fvSolution"
Using #calc at line 11 in file "/home/iwamoto/パック/package01/system/fvSolution"
Using #calc at line 12 in file "/home/iwamoto/パック/package01/system/fvSolution"
Using #calc at line 14 in file "/home/iwamoto/パック/package01/system/fvSolution"
Using #calc at line 15 in file "/home/iwamoto/パック/package01/system/fvSolution"
Time = 0.0032

smoothSolver:  Solving for Ux, Initial residual = 0.0208395, Final residual = 0.00135789, No Iterations 4
smoothSolver:  Solving for Uy, Initial residual = 0.0323886, Final residual = 0.00190368, No Iterations 4
smoothSolver:  Solving for Uz, Initial residual = 0.00281069, Final residual = 0.000178342, No Iterations 4
GAMG:  Solving for p, Initial residual = 0.0958623, Final residual = 0.00821424, No Iterations 3
time step continuity errors : sum local = 0.000370672, global = 2.0305e-06, cumulative = -5.14882e-05
smoothSolver:  Solving for epsilon, Initial residual = 0.0069937, Final residual = 0.000473954, No Iterations 4
bounding epsilon, min: -2979.08 max: 3.82198e+07 average: 49696.8
smoothSolver:  Solving for k, Initial residual = 0.01335, Final residual = 0.000954987, No Iterations 4
ExecutionTime = 43.65 s  ClockTime = 44 s

Time = 0.0033

smoothSolver:  Solving for Ux, Initial residual = 0.0206033, Final residual = 0.00131843, No Iterations 4
smoothSolver:  Solving for Uy, Initial residual = 0.0309044, Final residual = 0.00179334, No Iterations 4
smoothSolver:  Solving for Uz, Initial residual = 0.00273135, Final residual = 0.000172944, No Iterations 4
GAMG:  Solving for p, Initial residual = 0.0989351, Final residual = 0.00797338, No Iterations 3
time step continuity errors : sum local = 0.000373751, global = 2.53892e-06, cumulative = -4.89493e-05
smoothSolver:  Solving for epsilon, Initial residual = 0.00661916, Final residual = 0.000449665, No Iterations 4
bounding epsilon, min: -15452.7 max: 3.63011e+07 average: 49330.2
smoothSolver:  Solving for k, Initial residual = 0.0131874, Final residual = 0.000943101, No Iterations 4
ExecutionTime = 44.88 s  ClockTime = 45 s

Time = 0.0034

smoothSolver:  Solving for Ux, Initial residual = 0.0202644, Final residual = 0.00127899, No Iterations 4
smoothSolver:  Solving for Uy, Initial residual = 0.0299196, Final residual = 0.00168241, No Iterations 4
smoothSolver:  Solving for Uz, Initial residual = 0.00266457, Final residual = 0.000167941, No Iterations 4
GAMG:  Solving for p, Initial residual = 0.0999479, Final residual = 0.00757829, No Iterations 3
time step continuity errors : sum local = 0.000369865, global = 3.03471e-06, cumulative = -4.59146e-05
smoothSolver:  Solving for epsilon, Initial residual = 0.00626645, Final residual = 0.000426502, No Iterations 4
bounding epsilon, min: -3186.59 max: 3.45818e+07 average: 48973
smoothSolver:  Solving for k, Initial residual = 0.0130316, Final residual = 0.000930602, No Iterations 4
ExecutionTime = 46.1 s  ClockTime = 47 s

Time = 0.0035

smoothSolver:  Solving for Ux, Initial residual = 0.0197786, Final residual = 0.00123863, No Iterations 4
smoothSolver:  Solving for Uy, Initial residual = 0.0288888, Final residual = 0.00157814, No Iterations 4
smoothSolver:  Solving for Uz, Initial residual = 0.00260034, Final residual = 0.000163502, No Iterations 4
GAMG:  Solving for p, Initial residual = 0.0985322, Final residual = 0.00680331, No Iterations 3
time step continuity errors : sum local = 0.000345319, global = 3.55213e-06, cumulative = -4.23624e-05
smoothSolver:  Solving for epsilon, Initial residual = 0.00593376, Final residual = 0.000404662, No Iterations 4
bounding epsilon, min: -6427.57 max: 3.30296e+07 average: 48624.3
smoothSolver:  Solving for k, Initial residual = 0.0128722, Final residual = 0.000917727, No Iterations 4
ExecutionTime = 47.34 s  ClockTime = 48 s

Time = 0.0036

smoothSolver:  Solving for Ux, Initial residual = 0.0192278, Final residual = 0.00118236, No Iterations 4
smoothSolver:  Solving for Uy, Initial residual = 0.0279245, Final residual = 0.00147853, No Iterations 4
smoothSolver:  Solving for Uz, Initial residual = 0.00254565, Final residual = 0.000159535, No Iterations 4
GAMG:  Solving for p, Initial residual = 0.0945592, Final residual = 0.00596925, No Iterations 3
time step continuity errors : sum local = 0.000314251, global = 4.06078e-06, cumulative = -3.83017e-05
smoothSolver:  Solving for epsilon, Initial residual = 0.00562726, Final residual = 0.000384674, No Iterations 4
bounding epsilon, min: -7245.85 max: 3.16169e+07 average: 48283.6
smoothSolver:  Solving for k, Initial residual = 0.0127256, Final residual = 0.0009049, No Iterations 4
ExecutionTime = 48.57 s  ClockTime = 49 s

Time = 0.0037

smoothSolver:  Solving for Ux, Initial residual = 0.0186021, Final residual = 0.00112974, No Iterations 4
smoothSolver:  Solving for Uy, Initial residual = 0.0267865, Final residual = 0.00138851, No Iterations 4
smoothSolver:  Solving for Uz, Initial residual = 0.00249238, Final residual = 0.000155691, No Iterations 4
GAMG:  Solving for p, Initial residual = 0.0892407, Final residual = 0.00606839, No Iterations 3
time step continuity errors : sum local = 0.000330381, global = -2.69294e-06, cumulative = -4.09946e-05
smoothSolver:  Solving for epsilon, Initial residual = 0.00534654, Final residual = 0.000366717, No Iterations 4
bounding epsilon, min: -4277.42 max: 3.03226e+07 average: 47950
smoothSolver:  Solving for k, Initial residual = 0.01258, Final residual = 0.000891988, No Iterations 4
ExecutionTime = 49.79 s  ClockTime = 50 s

Time = 0.0038

smoothSolver:  Solving for Ux, Initial residual = 0.0180229, Final residual = 0.00108643, No Iterations 4
smoothSolver:  Solving for Uy, Initial residual = 0.0257279, Final residual = 0.00130578, No Iterations 4
smoothSolver:  Solving for Uz, Initial residual = 0.00243913, Final residual = 0.000151934, No Iterations 4
GAMG:  Solving for p, Initial residual = 0.084725, Final residual = 0.00458252, No Iterations 3
time step continuity errors : sum local = 0.000254418, global = 2.4819e-06, cumulative = -3.85127e-05
smoothSolver:  Solving for epsilon, Initial residual = 0.00508986, Final residual = 0.00035048, No Iterations 4
bounding epsilon, min: -3512.52 max: 2.91337e+07 average: 47612.2
smoothSolver:  Solving for k, Initial residual = 0.0124252, Final residual = 0.00087929, No Iterations 4
ExecutionTime = 51.03 s  ClockTime = 51 s

Time = 0.0039

smoothSolver:  Solving for Ux, Initial residual = 0.0174865, Final residual = 0.00104558, No Iterations 4
smoothSolver:  Solving for Uy, Initial residual = 0.0247803, Final residual = 0.00247565, No Iterations 3
smoothSolver:  Solving for Uz, Initial residual = 0.00238956, Final residual = 0.000148598, No Iterations 4
GAMG:  Solving for p, Initial residual = 0.078827, Final residual = 0.00427643, No Iterations 3
time step continuity errors : sum local = 0.000243846, global = 1.85142e-06, cumulative = -3.66613e-05
smoothSolver:  Solving for epsilon, Initial residual = 0.00486127, Final residual = 0.000336077, No Iterations 4
bounding epsilon, min: -4936.87 max: 2.80207e+07 average: 47275
smoothSolver:  Solving for k, Initial residual = 0.0122697, Final residual = 0.000867297, No Iterations 4
ExecutionTime = 52.24 s  ClockTime = 53 s

Time = 0.004

smoothSolver:  Solving for Ux, Initial residual = 0.017032, Final residual = 0.0010113, No Iterations 4
smoothSolver:  Solving for Uy, Initial residual = 0.0241754, Final residual = 0.002389, No Iterations 3
smoothSolver:  Solving for Uz, Initial residual = 0.00234078, Final residual = 0.000145219, No Iterations 4
GAMG:  Solving for p, Initial residual = 0.0738031, Final residual = 0.00401538, No Iterations 3
time step continuity errors : sum local = 0.000233364, global = 1.19969e-06, cumulative = -3.54616e-05
smoothSolver:  Solving for epsilon, Initial residual = 0.00466136, Final residual = 0.00032326, No Iterations 4
bounding epsilon, min: -3791.85 max: 2.69792e+07 average: 46943.5
smoothSolver:  Solving for k, Initial residual = 0.0121102, Final residual = 0.000856121, No Iterations 4
ExecutionTime = 53.45 s  ClockTime = 54 s

Time = 0.0041

smoothSolver:  Solving for Ux, Initial residual = 0.0166574, Final residual = 0.000980658, No Iterations 4
smoothSolver:  Solving for Uy, Initial residual = 0.0235101, Final residual = 0.00231136, No Iterations 3
smoothSolver:  Solving for Uz, Initial residual = 0.00228748, Final residual = 0.000141783, No Iterations 4
GAMG:  Solving for p, Initial residual = 0.0698924, Final residual = 0.00374174, No Iterations 3
time step continuity errors : sum local = 0.000221053, global = 6.14e-07, cumulative = -3.48476e-05
smoothSolver:  Solving for epsilon, Initial residual = 0.00448284, Final residual = 0.000311593, No Iterations 4
bounding epsilon, min: -5513.42 max: 2.59975e+07 average: 46618.8
smoothSolver:  Solving for k, Initial residual = 0.0119537, Final residual = 0.000846088, No Iterations 4
ExecutionTime = 54.69 s  ClockTime = 55 s


    From virtual bool Foam::regIOobject::readIfModified()
    in file db/regIOobject/regIOobjectRead.C at line 282
        Re-reading object fvSolution from file "/home/iwamoto/パック/package01/system/fvSolution"
Using #calc at line 8 in file "/home/iwamoto/パック/package01/system/fvSolution"
Using #calc at line 9 in file "/home/iwamoto/パック/package01/system/fvSolution"
Using #calc at line 10 in file "/home/iwamoto/パック/package01/system/fvSolution"
Using #calc at line 11 in file "/home/iwamoto/パック/package01/system/fvSolution"
Using #calc at line 12 in file "/home/iwamoto/パック/package01/system/fvSolution"
Using #calc at line 14 in file "/home/iwamoto/パック/package01/system/fvSolution"
Using #calc at line 15 in file "/home/iwamoto/パック/package01/system/fvSolution"
Time = 0.0042

smoothSolver:  Solving for Ux, Initial residual = 0.0157305, Final residual = 0.000845804, No Iterations 4
smoothSolver:  Solving for Uy, Initial residual = 0.0220918, Final residual = 0.0020217, No Iterations 3
smoothSolver:  Solving for Uz, Initial residual = 0.00213901, Final residual = 0.000122118, No Iterations 4
GAMG:  Solving for p, Initial residual = 0.0695391, Final residual = 0.00681686, No Iterations 2
time step continuity errors : sum local = 0.000391538, global = 2.68992e-07, cumulative = -3.45786e-05
smoothSolver:  Solving for epsilon, Initial residual = 0.00431709, Final residual = 0.000300391, No Iterations 4
bounding epsilon, min: -16940.6 max: 2.50683e+07 average: 46302.1
smoothSolver:  Solving for k, Initial residual = 0.012293, Final residual = 0.000941423, No Iterations 4
ExecutionTime = 55.85 s  ClockTime = 56 s

Time = 0.0043

smoothSolver:  Solving for Ux, Initial residual = 0.0155218, Final residual = 0.000822949, No Iterations 4
smoothSolver:  Solving for Uy, Initial residual = 0.0215, Final residual = 0.00196282, No Iterations 3
smoothSolver:  Solving for Uz, Initial residual = 0.00208606, Final residual = 0.000119383, No Iterations 4
GAMG:  Solving for p, Initial residual = 0.0682427, Final residual = 0.00413511, No Iterations 3
time step continuity errors : sum local = 0.000240286, global = -4.70196e-07, cumulative = -3.50488e-05
smoothSolver:  Solving for epsilon, Initial residual = 0.00419862, Final residual = 0.000291602, No Iterations 4
bounding epsilon, min: -5643.03 max: 2.41305e+07 average: 45988.5
smoothSolver:  Solving for k, Initial residual = 0.012164, Final residual = 0.000933876, No Iterations 4
ExecutionTime = 57.07 s  ClockTime = 58 s

Time = 0.0044

smoothSolver:  Solving for Ux, Initial residual = 0.0155315, Final residual = 0.000813036, No Iterations 4
smoothSolver:  Solving for Uy, Initial residual = 0.0210472, Final residual = 0.00191189, No Iterations 3
smoothSolver:  Solving for Uz, Initial residual = 0.00203506, Final residual = 0.000115893, No Iterations 4
GAMG:  Solving for p, Initial residual = 0.0644684, Final residual = 0.00630565, No Iterations 2
time step continuity errors : sum local = 0.000369346, global = -8.15539e-07, cumulative = -3.58643e-05
smoothSolver:  Solving for epsilon, Initial residual = 0.00407222, Final residual = 0.000282719, No Iterations 4
bounding epsilon, min: -3731.75 max: 2.32527e+07 average: 45679.8
smoothSolver:  Solving for k, Initial residual = 0.0120427, Final residual = 0.000927019, No Iterations 4
ExecutionTime = 58.24 s  ClockTime = 59 s

Time = 0.0045

smoothSolver:  Solving for Ux, Initial residual = 0.0154524, Final residual = 0.000797321, No Iterations 4
smoothSolver:  Solving for Uy, Initial residual = 0.0204783, Final residual = 0.00185671, No Iterations 3
smoothSolver:  Solving for Uz, Initial residual = 0.00198299, Final residual = 0.000113282, No Iterations 4
GAMG:  Solving for p, Initial residual = 0.0636999, Final residual = 0.00399372, No Iterations 3
time step continuity errors : sum local = 0.000235354, global = -1.36352e-06, cumulative = -3.72278e-05
smoothSolver:  Solving for epsilon, Initial residual = 0.00394823, Final residual = 0.000273847, No Iterations 4
bounding epsilon, min: -25968.2 max: 2.24105e+07 average: 45377.4
smoothSolver:  Solving for k, Initial residual = 0.0119251, Final residual = 0.000920915, No Iterations 4
ExecutionTime = 59.45 s  ClockTime = 60 s

Time = 0.0046

smoothSolver:  Solving for Ux, Initial residual = 0.015511, Final residual = 0.000791373, No Iterations 4
smoothSolver:  Solving for Uy, Initial residual = 0.0200945, Final residual = 0.00181596, No Iterations 3
smoothSolver:  Solving for Uz, Initial residual = 0.00193361, Final residual = 0.000110029, No Iterations 4
GAMG:  Solving for p, Initial residual = 0.0620239, Final residual = 0.00609296, No Iterations 2
time step continuity errors : sum local = 0.000360025, global = -1.80392e-06, cumulative = -3.90318e-05
smoothSolver:  Solving for epsilon, Initial residual = 0.00382071, Final residual = 0.000264891, No Iterations 4
bounding epsilon, min: -3747.03 max: 2.16273e+07 average: 45080.7
smoothSolver:  Solving for k, Initial residual = 0.0118011, Final residual = 0.000915187, No Iterations 4
ExecutionTime = 60.63 s  ClockTime = 61 s

Time = 0.0047

smoothSolver:  Solving for Ux, Initial residual = 0.0153414, Final residual = 0.000778513, No Iterations 4
smoothSolver:  Solving for Uy, Initial residual = 0.0196067, Final residual = 0.00177521, No Iterations 3
smoothSolver:  Solving for Uz, Initial residual = 0.00188373, Final residual = 0.000107807, No Iterations 4
GAMG:  Solving for p, Initial residual = 0.0609706, Final residual = 0.00382421, No Iterations 3
time step continuity errors : sum local = 0.000226605, global = -2.04765e-06, cumulative = -4.10794e-05
smoothSolver:  Solving for epsilon, Initial residual = 0.00369659, Final residual = 0.000255907, No Iterations 4
bounding epsilon, min: -3544.66 max: 2.08635e+07 average: 44791.5
smoothSolver:  Solving for k, Initial residual = 0.0116835, Final residual = 0.000909833, No Iterations 4
ExecutionTime = 61.84 s  ClockTime = 62 s

Time = 0.0048

smoothSolver:  Solving for Ux, Initial residual = 0.0152449, Final residual = 0.00152397, No Iterations 3
smoothSolver:  Solving for Uy, Initial residual = 0.0192962, Final residual = 0.00174872, No Iterations 3
smoothSolver:  Solving for Uz, Initial residual = 0.00184059, Final residual = 0.000105389, No Iterations 4
GAMG:  Solving for p, Initial residual = 0.0604179, Final residual = 0.00328925, No Iterations 3
time step continuity errors : sum local = 0.00019515, global = -2.40269e-06, cumulative = -4.34821e-05
smoothSolver:  Solving for epsilon, Initial residual = 0.00357356, Final residual = 0.000246831, No Iterations 4
bounding epsilon, min: -14847.1 max: 2.01503e+07 average: 44508.8
smoothSolver:  Solving for k, Initial residual = 0.0115604, Final residual = 0.000903759, No Iterations 4
ExecutionTime = 63.06 s  ClockTime = 64 s

Time = 0.0049

smoothSolver:  Solving for Ux, Initial residual = 0.0151661, Final residual = 0.00151298, No Iterations 3
smoothSolver:  Solving for Uy, Initial residual = 0.0189126, Final residual = 0.00171824, No Iterations 3
smoothSolver:  Solving for Uz, Initial residual = 0.00179442, Final residual = 0.000102934, No Iterations 4
GAMG:  Solving for p, Initial residual = 0.0595827, Final residual = 0.00572685, No Iterations 2
time step continuity errors : sum local = 0.00033963, global = -2.80444e-06, cumulative = -4.62865e-05
smoothSolver:  Solving for epsilon, Initial residual = 0.00344856, Final residual = 0.000237855, No Iterations 4
bounding epsilon, min: -7287.91 max: 1.94691e+07 average: 44233.7
smoothSolver:  Solving for k, Initial residual = 0.0114412, Final residual = 0.000896975, No Iterations 4
ExecutionTime = 64.22 s  ClockTime = 65 s

Time = 0.005

smoothSolver:  Solving for Ux, Initial residual = 0.0149497, Final residual = 0.00148886, No Iterations 3
smoothSolver:  Solving for Uy, Initial residual = 0.0185244, Final residual = 0.0016912, No Iterations 3
smoothSolver:  Solving for Uz, Initial residual = 0.00175069, Final residual = 0.000100897, No Iterations 4
GAMG:  Solving for p, Initial residual = 0.058665, Final residual = 0.00352963, No Iterations 3
time step continuity errors : sum local = 0.000209099, global = -3.01237e-06, cumulative = -4.92989e-05
smoothSolver:  Solving for epsilon, Initial residual = 0.00333184, Final residual = 0.00022918, No Iterations 4
bounding epsilon, min: -3609.24 max: 1.88079e+07 average: 43967
smoothSolver:  Solving for k, Initial residual = 0.0113357, Final residual = 0.000890121, No Iterations 4
ExecutionTime = 65.43 s  ClockTime = 66 s

Time = 0.0051

smoothSolver:  Solving for Ux, Initial residual = 0.0147376, Final residual = 0.00146761, No Iterations 3
smoothSolver:  Solving for Uy, Initial residual = 0.0182634, Final residual = 0.00168065, No Iterations 3
smoothSolver:  Solving for Uz, Initial residual = 0.00171474, Final residual = 9.86873e-05, No Iterations 4
GAMG:  Solving for p, Initial residual = 0.0577974, Final residual = 0.00316487, No Iterations 3
time step continuity errors : sum local = 0.00018709, global = -3.24043e-06, cumulative = -5.25394e-05
smoothSolver:  Solving for epsilon, Initial residual = 0.00321859, Final residual = 0.000220773, No Iterations 4
bounding epsilon, min: -3814.57 max: 1.81897e+07 average: 43707.7
smoothSolver:  Solving for k, Initial residual = 0.0112342, Final residual = 0.000882871, No Iterations 4
ExecutionTime = 66.66 s  ClockTime = 67 s


    From virtual bool Foam::regIOobject::readIfModified()
    in file db/regIOobject/regIOobjectRead.C at line 282
        Re-reading object fvSolution from file "/home/iwamoto/パック/package01/system/fvSolution"
Using #calc at line 8 in file "/home/iwamoto/パック/package01/system/fvSolution"
Using #calc at line 9 in file "/home/iwamoto/パック/package01/system/fvSolution"
Using #calc at line 10 in file "/home/iwamoto/パック/package01/system/fvSolution"
Using #calc at line 11 in file "/home/iwamoto/パック/package01/system/fvSolution"
Using #calc at line 12 in file "/home/iwamoto/パック/package01/system/fvSolution"
Using #calc at line 14 in file "/home/iwamoto/パック/package01/system/fvSolution"
Using #calc at line 15 in file "/home/iwamoto/パック/package01/system/fvSolution"
Time = 0.0052

smoothSolver:  Solving for Ux, Initial residual = 0.0138946, Final residual = 0.00130005, No Iterations 3
smoothSolver:  Solving for Uy, Initial residual = 0.0173325, Final residual = 0.00151427, No Iterations 3
smoothSolver:  Solving for Uz, Initial residual = 0.00161151, Final residual = 8.5471e-05, No Iterations 4
GAMG:  Solving for p, Initial residual = 0.0585511, Final residual = 0.00562652, No Iterations 2
time step continuity errors : sum local = 0.000318228, global = -3.53766e-06, cumulative = -5.6077e-05
smoothSolver:  Solving for epsilon, Initial residual = 0.00310131, Final residual = 0.000212504, No Iterations 4
bounding epsilon, min: -3506.13 max: 1.76036e+07 average: 43456
smoothSolver:  Solving for k, Initial residual = 0.0115976, Final residual = 0.000983514, No Iterations 4
ExecutionTime = 67.82 s  ClockTime = 68 s

Time = 0.0053

smoothSolver:  Solving for Ux, Initial residual = 0.013608, Final residual = 0.00127236, No Iterations 3
smoothSolver:  Solving for Uy, Initial residual = 0.0170529, Final residual = 0.00151217, No Iterations 3
smoothSolver:  Solving for Uz, Initial residual = 0.00158186, Final residual = 8.42371e-05, No Iterations 4
GAMG:  Solving for p, Initial residual = 0.0564047, Final residual = 0.00377368, No Iterations 3
time step continuity errors : sum local = 0.000212978, global = 2.60125e-06, cumulative = -5.34758e-05
smoothSolver:  Solving for epsilon, Initial residual = 0.00301998, Final residual = 0.000205994, No Iterations 4
bounding epsilon, min: -27252 max: 1.7012e+07 average: 43207.7
smoothSolver:  Solving for k, Initial residual = 0.011512, Final residual = 0.000976377, No Iterations 4
ExecutionTime = 69.02 s  ClockTime = 69 s

Time = 0.0054

smoothSolver:  Solving for Ux, Initial residual = 0.0133628, Final residual = 0.00124844, No Iterations 3
smoothSolver:  Solving for Uy, Initial residual = 0.0169089, Final residual = 0.00151757, No Iterations 3
smoothSolver:  Solving for Uz, Initial residual = 0.0015689, Final residual = 8.29689e-05, No Iterations 4
GAMG:  Solving for p, Initial residual = 0.0549786, Final residual = 0.00533914, No Iterations 2
time step continuity errors : sum local = 0.0003004, global = -8.72241e-07, cumulative = -5.4348e-05
smoothSolver:  Solving for epsilon, Initial residual = 0.00292732, Final residual = 0.00019929, No Iterations 4
bounding epsilon, min: -3400.42 max: 1.67602e+07 average: 42974.9
smoothSolver:  Solving for k, Initial residual = 0.0114125, Final residual = 0.00096792, No Iterations 4
ExecutionTime = 70.2 s  ClockTime = 71 s

Time = 0.0055

smoothSolver:  Solving for Ux, Initial residual = 0.0131077, Final residual = 0.00122255, No Iterations 3
smoothSolver:  Solving for Uy, Initial residual = 0.0166359, Final residual = 0.00151301, No Iterations 3
smoothSolver:  Solving for Uz, Initial residual = 0.00154439, Final residual = 8.19091e-05, No Iterations 4
GAMG:  Solving for p, Initial residual = 0.0529824, Final residual = 0.00307543, No Iterations 3
time step continuity errors : sum local = 0.00017338, global = -7.45954e-07, cumulative = -5.5094e-05
smoothSolver:  Solving for epsilon, Initial residual = 0.00283907, Final residual = 0.000192654, No Iterations 4
bounding epsilon, min: -5022.3 max: 1.67887e+07 average: 42754.7
smoothSolver:  Solving for k, Initial residual = 0.011304, Final residual = 0.000958988, No Iterations 4
ExecutionTime = 71.4 s  ClockTime = 72 s

Time = 0.0056

smoothSolver:  Solving for Ux, Initial residual = 0.0128671, Final residual = 0.00120024, No Iterations 3
smoothSolver:  Solving for Uy, Initial residual = 0.0163641, Final residual = 0.00151428, No Iterations 3
smoothSolver:  Solving for Uz, Initial residual = 0.00152178, Final residual = 8.08311e-05, No Iterations 4
GAMG:  Solving for p, Initial residual = 0.051375, Final residual = 0.00510372, No Iterations 2
time step continuity errors : sum local = 0.00028721, global = 2.74434e-07, cumulative = -5.48195e-05
smoothSolver:  Solving for epsilon, Initial residual = 0.00274274, Final residual = 0.00018607, No Iterations 4
bounding epsilon, min: -3205.75 max: 1.68355e+07 average: 42542.2
smoothSolver:  Solving for k, Initial residual = 0.0111816, Final residual = 0.000949104, No Iterations 4
ExecutionTime = 72.56 s  ClockTime = 73 s

Time = 0.0057

smoothSolver:  Solving for Ux, Initial residual = 0.0126208, Final residual = 0.00117487, No Iterations 3
smoothSolver:  Solving for Uy, Initial residual = 0.0161387, Final residual = 0.00151373, No Iterations 3
smoothSolver:  Solving for Uz, Initial residual = 0.00149926, Final residual = 7.99634e-05, No Iterations 4
GAMG:  Solving for p, Initial residual = 0.0506091, Final residual = 0.00308402, No Iterations 3
time step continuity errors : sum local = 0.000173058, global = 8.29933e-07, cumulative = -5.39896e-05
smoothSolver:  Solving for epsilon, Initial residual = 0.00265409, Final residual = 0.00017973, No Iterations 4
bounding epsilon, min: -5831.36 max: 1.68712e+07 average: 42336
smoothSolver:  Solving for k, Initial residual = 0.0110557, Final residual = 0.000938812, No Iterations 4
ExecutionTime = 73.77 s  ClockTime = 74 s

Time = 0.0058

smoothSolver:  Solving for Ux, Initial residual = 0.0124267, Final residual = 0.00115545, No Iterations 3
smoothSolver:  Solving for Uy, Initial residual = 0.0159565, Final residual = 0.00151885, No Iterations 3
smoothSolver:  Solving for Uz, Initial residual = 0.0014814, Final residual = 7.89064e-05, No Iterations 4
GAMG:  Solving for p, Initial residual = 0.0490918, Final residual = 0.00270274, No Iterations 3
time step continuity errors : sum local = 0.000151297, global = 1.63806e-06, cumulative = -5.23515e-05
smoothSolver:  Solving for epsilon, Initial residual = 0.00256642, Final residual = 0.000173576, No Iterations 4
bounding epsilon, min: -3141.13 max: 1.69246e+07 average: 42134.6
smoothSolver:  Solving for k, Initial residual = 0.0109204, Final residual = 0.000928015, No Iterations 4
ExecutionTime = 74.97 s  ClockTime = 75 s

Time = 0.0059

smoothSolver:  Solving for Ux, Initial residual = 0.0122904, Final residual = 0.00113452, No Iterations 3
smoothSolver:  Solving for Uy, Initial residual = 0.0164516, Final residual = 0.00151844, No Iterations 3
smoothSolver:  Solving for Uz, Initial residual = 0.00146768, Final residual = 7.79119e-05, No Iterations 4
GAMG:  Solving for p, Initial residual = 0.0477026, Final residual = 0.0025494, No Iterations 3
time step continuity errors : sum local = 0.000142415, global = 2.39911e-06, cumulative = -4.99524e-05
smoothSolver:  Solving for epsilon, Initial residual = 0.00248516, Final residual = 0.000167666, No Iterations 4
bounding epsilon, min: -4882.69 max: 1.69709e+07 average: 41937.8
smoothSolver:  Solving for k, Initial residual = 0.0107883, Final residual = 0.000916952, No Iterations 4
ExecutionTime = 76.19 s  ClockTime = 77 s

Time = 0.006

smoothSolver:  Solving for Ux, Initial residual = 0.0120617, Final residual = 0.0011127, No Iterations 3
smoothSolver:  Solving for Uy, Initial residual = 0.0155917, Final residual = 0.00153417, No Iterations 3
smoothSolver:  Solving for Uz, Initial residual = 0.00144285, Final residual = 7.70279e-05, No Iterations 4
GAMG:  Solving for p, Initial residual = 0.0464665, Final residual = 0.00252253, No Iterations 3
time step continuity errors : sum local = 0.000140705, global = 3.13995e-06, cumulative = -4.68125e-05
smoothSolver:  Solving for epsilon, Initial residual = 0.00239724, Final residual = 0.000161987, No Iterations 4
bounding epsilon, min: -3075.57 max: 1.70114e+07 average: 41745.9
smoothSolver:  Solving for k, Initial residual = 0.010645, Final residual = 0.000906116, No Iterations 4
ExecutionTime = 77.38 s  ClockTime = 78 s

Time = 0.0061

smoothSolver:  Solving for Ux, Initial residual = 0.0118968, Final residual = 0.00109175, No Iterations 3
smoothSolver:  Solving for Uy, Initial residual = 0.0154214, Final residual = 0.000772684, No Iterations 4
smoothSolver:  Solving for Uz, Initial residual = 0.00142427, Final residual = 7.61455e-05, No Iterations 4
GAMG:  Solving for p, Initial residual = 0.0458538, Final residual = 0.00326828, No Iterations 3
time step continuity errors : sum local = 0.000182061, global = -2.59057e-06, cumulative = -4.9403e-05
smoothSolver:  Solving for epsilon, Initial residual = 0.00231782, Final residual = 0.000156575, No Iterations 4
bounding epsilon, min: -4461.36 max: 1.70493e+07 average: 41558
smoothSolver:  Solving for k, Initial residual = 0.0105077, Final residual = 0.00089488, No Iterations 4
ExecutionTime = 78.63 s  ClockTime = 79 s


    From virtual bool Foam::regIOobject::readIfModified()
    in file db/regIOobject/regIOobjectRead.C at line 282
        Re-reading object fvSolution from file "/home/iwamoto/パック/package01/system/fvSolution"
Using #calc at line 8 in file "/home/iwamoto/パック/package01/system/fvSolution"
Using #calc at line 9 in file "/home/iwamoto/パック/package01/system/fvSolution"
Using #calc at line 10 in file "/home/iwamoto/パック/package01/system/fvSolution"
Using #calc at line 11 in file "/home/iwamoto/パック/package01/system/fvSolution"
Using #calc at line 12 in file "/home/iwamoto/パック/package01/system/fvSolution"
Using #calc at line 14 in file "/home/iwamoto/パック/package01/system/fvSolution"
Using #calc at line 15 in file "/home/iwamoto/パック/package01/system/fvSolution"
Time = 0.0062

smoothSolver:  Solving for Ux, Initial residual = 0.0122917, Final residual = 0.00119282, No Iterations 3
smoothSolver:  Solving for Uy, Initial residual = 0.0158776, Final residual = 0.000870289, No Iterations 4
smoothSolver:  Solving for Uz, Initial residual = 0.0014641, Final residual = 8.49595e-05, No Iterations 4
GAMG:  Solving for p, Initial residual = 0.0447451, Final residual = 0.00229247, No Iterations 3
time step continuity errors : sum local = 0.000132394, global = 1.91747e-06, cumulative = -4.74856e-05
smoothSolver:  Solving for epsilon, Initial residual = 0.00224302, Final residual = 0.000151412, No Iterations 4
bounding epsilon, min: -2911.59 max: 1.70879e+07 average: 41363.5
smoothSolver:  Solving for k, Initial residual = 0.0108189, Final residual = 0.000992012, No Iterations 4
ExecutionTime = 79.84 s  ClockTime = 80 s

Time = 0.0063

smoothSolver:  Solving for Ux, Initial residual = 0.0121172, Final residual = 0.00117081, No Iterations 3
smoothSolver:  Solving for Uy, Initial residual = 0.0155758, Final residual = 0.000868121, No Iterations 4
smoothSolver:  Solving for Uz, Initial residual = 0.00144925, Final residual = 8.41225e-05, No Iterations 4
GAMG:  Solving for p, Initial residual = 0.0453948, Final residual = 0.00238153, No Iterations 3
time step continuity errors : sum local = 0.000136974, global = 1.76568e-06, cumulative = -4.57199e-05
smoothSolver:  Solving for epsilon, Initial residual = 0.00219221, Final residual = 0.000147538, No Iterations 4
bounding epsilon, min: -3325.27 max: 1.70983e+07 average: 41162.9
smoothSolver:  Solving for k, Initial residual = 0.0106999, Final residual = 0.000980261, No Iterations 4
ExecutionTime = 81.07 s  ClockTime = 82 s

Time = 0.0064

smoothSolver:  Solving for Ux, Initial residual = 0.0119617, Final residual = 0.00114856, No Iterations 3
smoothSolver:  Solving for Uy, Initial residual = 0.0153556, Final residual = 0.000869516, No Iterations 4
smoothSolver:  Solving for Uz, Initial residual = 0.0014347, Final residual = 8.30211e-05, No Iterations 4
GAMG:  Solving for p, Initial residual = 0.0460783, Final residual = 0.00243862, No Iterations 3
time step continuity errors : sum local = 0.000140074, global = 1.44121e-06, cumulative = -4.42787e-05
smoothSolver:  Solving for epsilon, Initial residual = 0.00213774, Final residual = 0.000143557, No Iterations 4
bounding epsilon, min: -2991.15 max: 1.71245e+07 average: 40964.2
smoothSolver:  Solving for k, Initial residual = 0.0105707, Final residual = 0.000967592, No Iterations 4
ExecutionTime = 82.29 s  ClockTime = 83 s

Time = 0.0065

smoothSolver:  Solving for Ux, Initial residual = 0.0118109, Final residual = 0.00112555, No Iterations 3
smoothSolver:  Solving for Uy, Initial residual = 0.0152441, Final residual = 0.000872436, No Iterations 4
smoothSolver:  Solving for Uz, Initial residual = 0.00141913, Final residual = 8.17143e-05, No Iterations 4
GAMG:  Solving for p, Initial residual = 0.0464659, Final residual = 0.00244873, No Iterations 3
time step continuity errors : sum local = 0.000140641, global = 1.04162e-06, cumulative = -4.32371e-05
smoothSolver:  Solving for epsilon, Initial residual = 0.00208374, Final residual = 0.00013957, No Iterations 4
bounding epsilon, min: -18447 max: 1.71601e+07 average: 40768.8
smoothSolver:  Solving for k, Initial residual = 0.0104347, Final residual = 0.000954337, No Iterations 4
ExecutionTime = 83.5 s  ClockTime = 84 s

Time = 0.0066

smoothSolver:  Solving for Ux, Initial residual = 0.0116296, Final residual = 0.00110099, No Iterations 3
smoothSolver:  Solving for Uy, Initial residual = 0.0151262, Final residual = 0.000872307, No Iterations 4
smoothSolver:  Solving for Uz, Initial residual = 0.0014019, Final residual = 8.02991e-05, No Iterations 4
GAMG:  Solving for p, Initial residual = 0.0462146, Final residual = 0.00240907, No Iterations 3
time step continuity errors : sum local = 0.000138481, global = 6.69935e-07, cumulative = -4.25671e-05
smoothSolver:  Solving for epsilon, Initial residual = 0.00202722, Final residual = 0.000135595, No Iterations 4
bounding epsilon, min: -2955.05 max: 1.72192e+07 average: 40578.2
smoothSolver:  Solving for k, Initial residual = 0.0102823, Final residual = 0.000940691, No Iterations 4
ExecutionTime = 84.71 s  ClockTime = 85 s

Time = 0.0067

smoothSolver:  Solving for Ux, Initial residual = 0.0114307, Final residual = 0.00107442, No Iterations 3
smoothSolver:  Solving for Uy, Initial residual = 0.0149651, Final residual = 0.000866457, No Iterations 4
smoothSolver:  Solving for Uz, Initial residual = 0.00138451, Final residual = 7.89175e-05, No Iterations 4
GAMG:  Solving for p, Initial residual = 0.0456458, Final residual = 0.0023491, No Iterations 3
time step continuity errors : sum local = 0.000135192, global = 3.44712e-07, cumulative = -4.22224e-05
smoothSolver:  Solving for epsilon, Initial residual = 0.00196257, Final residual = 0.000131659, No Iterations 4
bounding epsilon, min: -2895.75 max: 1.71941e+07 average: 40390.4
smoothSolver:  Solving for k, Initial residual = 0.0101266, Final residual = 0.000926894, No Iterations 4
ExecutionTime = 85.94 s  ClockTime = 86 s

Time = 0.0068

smoothSolver:  Solving for Ux, Initial residual = 0.0112103, Final residual = 0.00104619, No Iterations 3
smoothSolver:  Solving for Uy, Initial residual = 0.0148212, Final residual = 0.000853278, No Iterations 4
smoothSolver:  Solving for Uz, Initial residual = 0.00136939, Final residual = 7.7628e-05, No Iterations 4
GAMG:  Solving for p, Initial residual = 0.044887, Final residual = 0.00230921, No Iterations 3
time step continuity errors : sum local = 0.000133031, global = 4.20003e-08, cumulative = -4.21804e-05
smoothSolver:  Solving for epsilon, Initial residual = 0.00190395, Final residual = 0.000127747, No Iterations 4
bounding epsilon, min: -2970.89 max: 1.7144e+07 average: 40207.7
smoothSolver:  Solving for k, Initial residual = 0.00997115, Final residual = 0.000912943, No Iterations 4
ExecutionTime = 87.16 s  ClockTime = 88 s

Time = 0.0069

smoothSolver:  Solving for Ux, Initial residual = 0.0109579, Final residual = 0.00101504, No Iterations 3
smoothSolver:  Solving for Uy, Initial residual = 0.0145642, Final residual = 0.000834334, No Iterations 4
smoothSolver:  Solving for Uz, Initial residual = 0.00135619, Final residual = 7.63085e-05, No Iterations 4
GAMG:  Solving for p, Initial residual = 0.0439171, Final residual = 0.00224689, No Iterations 3
time step continuity errors : sum local = 0.000129655, global = -2.4374e-07, cumulative = -4.24242e-05
smoothSolver:  Solving for epsilon, Initial residual = 0.00184735, Final residual = 0.000123946, No Iterations 4
bounding epsilon, min: -5685.08 max: 1.71363e+07 average: 40029.8
smoothSolver:  Solving for k, Initial residual = 0.0098151, Final residual = 0.000898863, No Iterations 4
ExecutionTime = 88.37 s  ClockTime = 89 s

Time = 0.007

smoothSolver:  Solving for Ux, Initial residual = 0.0106823, Final residual = 0.00098247, No Iterations 3
smoothSolver:  Solving for Uy, Initial residual = 0.0143012, Final residual = 0.000811639, No Iterations 4
smoothSolver:  Solving for Uz, Initial residual = 0.00134523, Final residual = 7.49206e-05, No Iterations 4
GAMG:  Solving for p, Initial residual = 0.0429114, Final residual = 0.002205, No Iterations 3
time step continuity errors : sum local = 0.000127509, global = -5.17081e-07, cumulative = -4.29412e-05
smoothSolver:  Solving for epsilon, Initial residual = 0.00179565, Final residual = 0.000120205, No Iterations 4
bounding epsilon, min: -134299 max: 1.71399e+07 average: 39855.9
smoothSolver:  Solving for k, Initial residual = 0.00966127, Final residual = 0.000884752, No Iterations 4
ExecutionTime = 89.6 s  ClockTime = 90 s

Time = 0.0071

smoothSolver:  Solving for Ux, Initial residual = 0.0103961, Final residual = 0.000947892, No Iterations 3
smoothSolver:  Solving for Uy, Initial residual = 0.0140302, Final residual = 0.000784523, No Iterations 4
smoothSolver:  Solving for Uz, Initial residual = 0.00133478, Final residual = 7.34416e-05, No Iterations 4
GAMG:  Solving for p, Initial residual = 0.0421985, Final residual = 0.00215603, No Iterations 3
time step continuity errors : sum local = 0.000125075, global = -7.70507e-07, cumulative = -4.37117e-05
smoothSolver:  Solving for epsilon, Initial residual = 0.0017394, Final residual = 0.000116522, No Iterations 4
bounding epsilon, min: -3811.25 max: 1.71618e+07 average: 39686.5
smoothSolver:  Solving for k, Initial residual = 0.00950128, Final residual = 0.000870968, No Iterations 4
ExecutionTime = 90.83 s  ClockTime = 91 s


    From virtual bool Foam::regIOobject::readIfModified()
    in file db/regIOobject/regIOobjectRead.C at line 282
        Re-reading object fvSolution from file "/home/iwamoto/パック/package01/system/fvSolution"
Using #calc at line 8 in file "/home/iwamoto/パック/package01/system/fvSolution"
Using #calc at line 9 in file "/home/iwamoto/パック/package01/system/fvSolution"
Using #calc at line 10 in file "/home/iwamoto/パック/package01/system/fvSolution"
Using #calc at line 11 in file "/home/iwamoto/パック/package01/system/fvSolution"
Using #calc at line 12 in file "/home/iwamoto/パック/package01/system/fvSolution"
Using #calc at line 14 in file "/home/iwamoto/パック/package01/system/fvSolution"
Using #calc at line 15 in file "/home/iwamoto/パック/package01/system/fvSolution"
Time = 0.0072

smoothSolver:  Solving for Ux, Initial residual = 0.010549, Final residual = 0.00101282, No Iterations 3
smoothSolver:  Solving for Uy, Initial residual = 0.0142433, Final residual = 0.000849351, No Iterations 4
smoothSolver:  Solving for Uz, Initial residual = 0.00138178, Final residual = 8.16049e-05, No Iterations 4
GAMG:  Solving for p, Initial residual = 0.0403358, Final residual = 0.00208016, No Iterations 3
time step continuity errors : sum local = 0.000126323, global = -1.00469e-06, cumulative = -4.47164e-05
smoothSolver:  Solving for epsilon, Initial residual = 0.00168208, Final residual = 0.000112941, No Iterations 4
bounding epsilon, min: -2857.04 max: 1.71699e+07 average: 39519.3
smoothSolver:  Solving for k, Initial residual = 0.00975452, Final residual = 0.000961969, No Iterations 4
ExecutionTime = 92.05 s  ClockTime = 93 s

Time = 0.0073

smoothSolver:  Solving for Ux, Initial residual = 0.0102838, Final residual = 0.000974775, No Iterations 3
smoothSolver:  Solving for Uy, Initial residual = 0.0140109, Final residual = 0.00081703, No Iterations 4
smoothSolver:  Solving for Uz, Initial residual = 0.00136899, Final residual = 8.05149e-05, No Iterations 4
GAMG:  Solving for p, Initial residual = 0.0406568, Final residual = 0.00404055, No Iterations 2
time step continuity errors : sum local = 0.000246317, global = -1.29716e-06, cumulative = -4.60136e-05
smoothSolver:  Solving for epsilon, Initial residual = 0.00164634, Final residual = 0.000110223, No Iterations 4
bounding epsilon, min: -8047.36 max: 1.71454e+07 average: 39352.3
smoothSolver:  Solving for k, Initial residual = 0.0096174, Final residual = 0.000948365, No Iterations 4
ExecutionTime = 93.23 s  ClockTime = 94 s

Time = 0.0074

smoothSolver:  Solving for Ux, Initial residual = 0.00999843, Final residual = 0.000939522, No Iterations 3
smoothSolver:  Solving for Uy, Initial residual = 0.0137242, Final residual = 0.00078682, No Iterations 4
smoothSolver:  Solving for Uz, Initial residual = 0.00135427, Final residual = 7.98176e-05, No Iterations 4
GAMG:  Solving for p, Initial residual = 0.04161, Final residual = 0.00251961, No Iterations 3
time step continuity errors : sum local = 0.000154422, global = -1.46062e-06, cumulative = -4.74742e-05
smoothSolver:  Solving for epsilon, Initial residual = 0.00160992, Final residual = 0.000107371, No Iterations 4
bounding epsilon, min: -131787 max: 1.71193e+07 average: 39188.6
smoothSolver:  Solving for k, Initial residual = 0.00947678, Final residual = 0.000934518, No Iterations 4
ExecutionTime = 94.45 s  ClockTime = 95 s

Time = 0.0075

smoothSolver:  Solving for Ux, Initial residual = 0.00969813, Final residual = 0.000900524, No Iterations 3
smoothSolver:  Solving for Uy, Initial residual = 0.0134965, Final residual = 0.000758796, No Iterations 4
smoothSolver:  Solving for Uz, Initial residual = 0.00134084, Final residual = 7.88655e-05, No Iterations 4
GAMG:  Solving for p, Initial residual = 0.0409769, Final residual = 0.00235104, No Iterations 3
time step continuity errors : sum local = 0.000144761, global = -1.66774e-06, cumulative = -4.91419e-05
smoothSolver:  Solving for epsilon, Initial residual = 0.00156803, Final residual = 0.000104471, No Iterations 4
bounding epsilon, min: -5145.02 max: 1.7119e+07 average: 39028.1
smoothSolver:  Solving for k, Initial residual = 0.00932649, Final residual = 0.000920077, No Iterations 4
ExecutionTime = 95.67 s  ClockTime = 96 s

Time = 0.0076

smoothSolver:  Solving for Ux, Initial residual = 0.00942462, Final residual = 0.000868017, No Iterations 3
smoothSolver:  Solving for Uy, Initial residual = 0.0132578, Final residual = 0.00073334, No Iterations 4
smoothSolver:  Solving for Uz, Initial residual = 0.00133, Final residual = 7.81795e-05, No Iterations 4
GAMG:  Solving for p, Initial residual = 0.0407484, Final residual = 0.00380025, No Iterations 2
time step continuity errors : sum local = 0.000235126, global = -1.908e-06, cumulative = -5.105e-05
smoothSolver:  Solving for epsilon, Initial residual = 0.00152146, Final residual = 0.000101584, No Iterations 4
bounding epsilon, min: -3160.7 max: 1.70916e+07 average: 38869.1
smoothSolver:  Solving for k, Initial residual = 0.0091733, Final residual = 0.000905198, No Iterations 4
ExecutionTime = 96.85 s  ClockTime = 97 s

Time = 0.0077

smoothSolver:  Solving for Ux, Initial residual = 0.00919558, Final residual = 0.000841824, No Iterations 3
smoothSolver:  Solving for Uy, Initial residual = 0.0129866, Final residual = 0.000706643, No Iterations 4
smoothSolver:  Solving for Uz, Initial residual = 0.00131702, Final residual = 7.79819e-05, No Iterations 4
GAMG:  Solving for p, Initial residual = 0.0408139, Final residual = 0.00249223, No Iterations 3
time step continuity errors : sum local = 0.000155047, global = -2.02524e-06, cumulative = -5.30752e-05
smoothSolver:  Solving for epsilon, Initial residual = 0.0014795, Final residual = 9.86886e-05, No Iterations 4
bounding epsilon, min: -4340.14 max: 1.70393e+07 average: 38714
smoothSolver:  Solving for k, Initial residual = 0.00902096, Final residual = 0.000890431, No Iterations 4
ExecutionTime = 98.06 s  ClockTime = 99 s

Time = 0.0078

smoothSolver:  Solving for Ux, Initial residual = 0.00896959, Final residual = 0.000815524, No Iterations 3
smoothSolver:  Solving for Uy, Initial residual = 0.0127599, Final residual = 0.000682655, No Iterations 4
smoothSolver:  Solving for Uz, Initial residual = 0.00130768, Final residual = 7.75522e-05, No Iterations 4
GAMG:  Solving for p, Initial residual = 0.0398694, Final residual = 0.00369031, No Iterations 2
time step continuity errors : sum local = 0.000230607, global = -2.26881e-06, cumulative = -5.5344e-05
smoothSolver:  Solving for epsilon, Initial residual = 0.00143886, Final residual = 9.58192e-05, No Iterations 4
bounding epsilon, min: -2956.48 max: 1.70098e+07 average: 38562.2
smoothSolver:  Solving for k, Initial residual = 0.00886062, Final residual = 0.00087543, No Iterations 4
ExecutionTime = 99.24 s  ClockTime = 100 s

Time = 0.0079

smoothSolver:  Solving for Ux, Initial residual = 0.00876191, Final residual = 0.000794773, No Iterations 3
smoothSolver:  Solving for Uy, Initial residual = 0.0124462, Final residual = 0.00065489, No Iterations 4
smoothSolver:  Solving for Uz, Initial residual = 0.00129706, Final residual = 7.76001e-05, No Iterations 4
[...]
smoothSolver:  Solving for Uy, Initial residual = 0.00220679, Final residual = 0.000185322, No Iterations 8
smoothSolver:  Solving for Uz, Initial residual = 0.000111334, Final residual = 9.67825e-06, No Iterations 10
GAMG:  Solving for p, Initial residual = 0.00211338, Final residual = 0.00018717, No Iterations 2
time step continuity errors : sum local = 4.89725e-05, global = -7.76735e-08, cumulative = -5.48179e-05
smoothSolver:  Solving for epsilon, Initial residual = 4.73555e-05, Final residual = 3.3695e-06, No Iterations 3
bounding epsilon, min: -1450.2 max: 1.49913e+07 average: 34065
smoothSolver:  Solving for k, Initial residual = 0.000172466, Final residual = 1.70577e-05, No Iterations 5
ExecutionTime = 454.7 s  ClockTime = 455 s

Time = 0.0361

smoothSolver:  Solving for Ux, Initial residual = 0.00117922, Final residual = 0.000110524, No Iterations 9
smoothSolver:  Solving for Uy, Initial residual = 0.00210509, Final residual = 0.000176851, No Iterations 8
smoothSolver:  Solving for Uz, Initial residual = 0.000106678, Final residual = 9.14609e-06, No Iterations 10
GAMG:  Solving for p, Initial residual = 0.00203064, Final residual = 0.000184279, No Iterations 2
time step continuity errors : sum local = 4.82143e-05, global = -1.13484e-07, cumulative = -5.49314e-05
smoothSolver:  Solving for epsilon, Initial residual = 2.12973e-05, Final residual = 2.03722e-06, No Iterations 4
bounding epsilon, min: -17253.6 max: 1.49923e+07 average: 34064.1
smoothSolver:  Solving for k, Initial residual = 0.000167013, Final residual = 1.6519e-05, No Iterations 5
ExecutionTime = 456.03 s  ClockTime = 457 s

Time = 0.0362

smoothSolver:  Solving for Ux, Initial residual = 0.0011339, Final residual = 0.000106416, No Iterations 9
smoothSolver:  Solving for Uy, Initial residual = 0.00201665, Final residual = 0.000169225, No Iterations 8
smoothSolver:  Solving for Uz, Initial residual = 0.000102767, Final residual = 8.66916e-06, No Iterations 10
GAMG:  Solving for p, Initial residual = 0.00195404, Final residual = 0.000181575, No Iterations 2
time step continuity errors : sum local = 4.75048e-05, global = -1.47028e-07, cumulative = -5.50785e-05
smoothSolver:  Solving for epsilon, Initial residual = 4.62491e-05, Final residual = 3.11317e-06, No Iterations 3
bounding epsilon, min: -5337.16 max: 1.49924e+07 average: 34063.4
smoothSolver:  Solving for k, Initial residual = 0.000162016, Final residual = 1.59922e-05, No Iterations 5
ExecutionTime = 457.35 s  ClockTime = 458 s

Time = 0.0363

smoothSolver:  Solving for Ux, Initial residual = 0.00108876, Final residual = 0.00010228, No Iterations 9
smoothSolver:  Solving for Uy, Initial residual = 0.00192575, Final residual = 0.000161395, No Iterations 8
smoothSolver:  Solving for Uz, Initial residual = 9.90903e-05, Final residual = 8.25401e-06, No Iterations 10
GAMG:  Solving for p, Initial residual = 0.00187982, Final residual = 0.00017925, No Iterations 2
time step continuity errors : sum local = 4.68956e-05, global = -1.77826e-07, cumulative = -5.52563e-05
smoothSolver:  Solving for epsilon, Initial residual = 2.07429e-05, Final residual = 1.88729e-06, No Iterations 4
bounding epsilon, min: -17236 max: 1.49934e+07 average: 34062.8
smoothSolver:  Solving for k, Initial residual = 0.000156685, Final residual = 1.5361e-05, No Iterations 5
ExecutionTime = 458.66 s  ClockTime = 459 s

Time = 0.0364

smoothSolver:  Solving for Ux, Initial residual = 0.00104562, Final residual = 9.8037e-05, No Iterations 9
smoothSolver:  Solving for Uy, Initial residual = 0.00183086, Final residual = 0.000154509, No Iterations 8
smoothSolver:  Solving for Uz, Initial residual = 9.52454e-05, Final residual = 7.88148e-06, No Iterations 10
GAMG:  Solving for p, Initial residual = 0.00180734, Final residual = 0.00017739, No Iterations 2
time step continuity errors : sum local = 4.64084e-05, global = -2.06558e-07, cumulative = -5.54628e-05
smoothSolver:  Solving for epsilon, Initial residual = 4.51382e-05, Final residual = 2.88754e-06, No Iterations 3
bounding epsilon, min: -1190.32 max: 1.49933e+07 average: 34062.6
smoothSolver:  Solving for k, Initial residual = 0.000150688, Final residual = 1.47298e-05, No Iterations 5
ExecutionTime = 459.97 s  ClockTime = 461 s

Time = 0.0365

smoothSolver:  Solving for Ux, Initial residual = 0.00101233, Final residual = 9.41012e-05, No Iterations 9
smoothSolver:  Solving for Uy, Initial residual = 0.00176136, Final residual = 0.000148761, No Iterations 8
smoothSolver:  Solving for Uz, Initial residual = 9.22365e-05, Final residual = 7.55878e-06, No Iterations 10
GAMG:  Solving for p, Initial residual = 0.00174087, Final residual = 0.000152657, No Iterations 3
time step continuity errors : sum local = 3.99367e-05, global = -2.25937e-07, cumulative = -5.56888e-05
smoothSolver:  Solving for epsilon, Initial residual = 1.93271e-05, Final residual = 1.75565e-06, No Iterations 4
bounding epsilon, min: -17187.8 max: 1.49943e+07 average: 34062.3
smoothSolver:  Solving for k, Initial residual = 0.000145981, Final residual = 1.40121e-05, No Iterations 5
ExecutionTime = 461.33 s  ClockTime = 462 s

Time = 0.0366

smoothSolver:  Solving for Ux, Initial residual = 0.000996299, Final residual = 8.91575e-05, No Iterations 9
smoothSolver:  Solving for Uy, Initial residual = 0.00171286, Final residual = 0.000141558, No Iterations 8
smoothSolver:  Solving for Uz, Initial residual = 9.06159e-05, Final residual = 8.91667e-06, No Iterations 9
GAMG:  Solving for p, Initial residual = 0.00168901, Final residual = 0.00014934, No Iterations 2
time step continuity errors : sum local = 3.90669e-05, global = -2.54164e-07, cumulative = -5.59429e-05
smoothSolver:  Solving for epsilon, Initial residual = 4.425e-05, Final residual = 2.68172e-06, No Iterations 3
bounding epsilon, min: -1419.65 max: 1.49941e+07 average: 34062.5
smoothSolver:  Solving for k, Initial residual = 0.000139791, Final residual = 1.33592e-05, No Iterations 5
ExecutionTime = 462.63 s  ClockTime = 463 s

Time = 0.0367

smoothSolver:  Solving for Ux, Initial residual = 0.000978007, Final residual = 8.39822e-05, No Iterations 9
smoothSolver:  Solving for Uy, Initial residual = 0.00176932, Final residual = 0.00017283, No Iterations 7
smoothSolver:  Solving for Uz, Initial residual = 8.97077e-05, Final residual = 8.74452e-06, No Iterations 9
GAMG:  Solving for p, Initial residual = 0.00161749, Final residual = 0.000146694, No Iterations 2
time step continuity errors : sum local = 3.8375e-05, global = -2.78813e-07, cumulative = -5.62218e-05
smoothSolver:  Solving for epsilon, Initial residual = 2.14857e-05, Final residual = 1.67462e-06, No Iterations 4
bounding epsilon, min: -17118.5 max: 1.49949e+07 average: 34062.9
smoothSolver:  Solving for k, Initial residual = 0.000141921, Final residual = 1.30089e-05, No Iterations 5
ExecutionTime = 463.92 s  ClockTime = 464 s

Time = 0.0368

smoothSolver:  Solving for Ux, Initial residual = 0.000892372, Final residual = 7.81325e-05, No Iterations 9
smoothSolver:  Solving for Uy, Initial residual = 0.00158384, Final residual = 0.000130383, No Iterations 8
smoothSolver:  Solving for Uz, Initial residual = 8.28911e-05, Final residual = 6.83214e-06, No Iterations 10
GAMG:  Solving for p, Initial residual = 0.00153918, Final residual = 0.000142799, No Iterations 2
time step continuity errors : sum local = 3.73578e-05, global = -3.02954e-07, cumulative = -5.65247e-05
smoothSolver:  Solving for epsilon, Initial residual = 4.44741e-05, Final residual = 4.36505e-06, No Iterations 2
bounding epsilon, min: -3904.94 max: 1.49946e+07 average: 34063.3
smoothSolver:  Solving for k, Initial residual = 0.000132872, Final residual = 1.2602e-05, No Iterations 5
ExecutionTime = 465.22 s  ClockTime = 466 s

Time = 0.0369

smoothSolver:  Solving for Ux, Initial residual = 0.000839639, Final residual = 7.29413e-05, No Iterations 9
smoothSolver:  Solving for Uy, Initial residual = 0.00154178, Final residual = 0.000126345, No Iterations 8
smoothSolver:  Solving for Uz, Initial residual = 8.05483e-05, Final residual = 6.65815e-06, No Iterations 10
GAMG:  Solving for p, Initial residual = 0.00146526, Final residual = 0.000138481, No Iterations 2
time step continuity errors : sum local = 3.62292e-05, global = -3.25818e-07, cumulative = -5.68505e-05
smoothSolver:  Solving for epsilon, Initial residual = 1.87492e-05, Final residual = 1.64776e-06, No Iterations 4
bounding epsilon, min: -17038.7 max: 1.49952e+07 average: 34063.7
smoothSolver:  Solving for k, Initial residual = 0.000128137, Final residual = 1.1714e-05, No Iterations 5
ExecutionTime = 466.53 s  ClockTime = 467 s

Time = 0.037

smoothSolver:  Solving for Ux, Initial residual = 0.00079347, Final residual = 6.83169e-05, No Iterations 9
smoothSolver:  Solving for Uy, Initial residual = 0.00140131, Final residual = 0.000121057, No Iterations 8
smoothSolver:  Solving for Uz, Initial residual = 7.53519e-05, Final residual = 6.4521e-06, No Iterations 10
GAMG:  Solving for p, Initial residual = 0.00139525, Final residual = 0.000133475, No Iterations 2
time step continuity errors : sum local = 3.49207e-05, global = -3.45985e-07, cumulative = -5.71965e-05
smoothSolver:  Solving for epsilon, Initial residual = 4.22857e-05, Final residual = 4.04742e-06, No Iterations 2
bounding epsilon, min: -1184.58 max: 1.49949e+07 average: 34064.2
smoothSolver:  Solving for k, Initial residual = 0.000118362, Final residual = 1.10135e-05, No Iterations 5
ExecutionTime = 467.84 s  ClockTime = 468 s

Time = 0.0371

smoothSolver:  Solving for Ux, Initial residual = 0.000755763, Final residual = 6.42062e-05, No Iterations 9
smoothSolver:  Solving for Uy, Initial residual = 0.00134879, Final residual = 0.000116935, No Iterations 8
smoothSolver:  Solving for Uz, Initial residual = 7.20997e-05, Final residual = 6.24548e-06, No Iterations 10
GAMG:  Solving for p, Initial residual = 0.00133151, Final residual = 0.000126834, No Iterations 2
time step continuity errors : sum local = 3.31842e-05, global = -3.63714e-07, cumulative = -5.75602e-05
smoothSolver:  Solving for epsilon, Initial residual = 1.66862e-05, Final residual = 1.49537e-06, No Iterations 4
bounding epsilon, min: -16939.5 max: 1.49955e+07 average: 34064.7
smoothSolver:  Solving for k, Initial residual = 0.000112286, Final residual = 1.0242e-05, No Iterations 5
ExecutionTime = 469.18 s  ClockTime = 470 s


    From virtual bool Foam::regIOobject::readIfModified()
    in file db/regIOobject/regIOobjectRead.C at line 282
        Re-reading object fvSolution from file "/home/iwamoto/パック/package01/system/fvSolution"
Using #calc at line 8 in file "/home/iwamoto/パック/package01/system/fvSolution"
Using #calc at line 9 in file "/home/iwamoto/パック/package01/system/fvSolution"
Using #calc at line 10 in file "/home/iwamoto/パック/package01/system/fvSolution"
Using #calc at line 11 in file "/home/iwamoto/パック/package01/system/fvSolution"
Using #calc at line 12 in file "/home/iwamoto/パック/package01/system/fvSolution"
Using #calc at line 14 in file "/home/iwamoto/パック/package01/system/fvSolution"
Using #calc at line 15 in file "/home/iwamoto/パック/package01/system/fvSolution"
Time = 0.0372

smoothSolver:  Solving for Ux, Initial residual = 0.000779254, Final residual = 7.70299e-05, No Iterations 8
smoothSolver:  Solving for Uy, Initial residual = 0.00136104, Final residual = 0.00011613, No Iterations 8
smoothSolver:  Solving for Uz, Initial residual = 7.14279e-05, Final residual = 6.07766e-06, No Iterations 10
GAMG:  Solving for p, Initial residual = 0.00127801, Final residual = 0.000117646, No Iterations 2
time step continuity errors : sum local = 3.07804e-05, global = -3.79725e-07, cumulative = -5.794e-05
smoothSolver:  Solving for epsilon, Initial residual = 4.40886e-05, Final residual = 3.93289e-06, No Iterations 2
bounding epsilon, min: -12314.5 max: 1.49951e+07 average: 34065.2
smoothSolver:  Solving for k, Initial residual = 0.000109839, Final residual = 9.57532e-06, No Iterations 5
ExecutionTime = 470.48 s  ClockTime = 471 s

Time = 0.0373

smoothSolver:  Solving for Ux, Initial residual = 0.000701752, Final residual = 5.82878e-05, No Iterations 9
smoothSolver:  Solving for Uy, Initial residual = 0.00128897, Final residual = 0.000111866, No Iterations 8
smoothSolver:  Solving for Uz, Initial residual = 6.71442e-05, Final residual = 5.82187e-06, No Iterations 10
GAMG:  Solving for p, Initial residual = 0.00121629, Final residual = 0.000110018, No Iterations 2
time step continuity errors : sum local = 2.87882e-05, global = -3.94934e-07, cumulative = -5.83349e-05
smoothSolver:  Solving for epsilon, Initial residual = 1.70565e-05, Final residual = 1.28966e-06, No Iterations 4
bounding epsilon, min: -14411.6 max: 1.49957e+07 average: 34065.7
smoothSolver:  Solving for k, Initial residual = 0.000102031, Final residual = 8.81654e-06, No Iterations 5
ExecutionTime = 471.8 s  ClockTime = 472 s

Time = 0.0374

smoothSolver:  Solving for Ux, Initial residual = 0.000667829, Final residual = 5.59136e-05, No Iterations 9
smoothSolver:  Solving for Uy, Initial residual = 0.00122876, Final residual = 0.000106718, No Iterations 8
smoothSolver:  Solving for Uz, Initial residual = 6.34187e-05, Final residual = 5.53725e-06, No Iterations 10
GAMG:  Solving for p, Initial residual = 0.00116244, Final residual = 0.000101033, No Iterations 2
time step continuity errors : sum local = 2.64383e-05, global = -4.08211e-07, cumulative = -5.87431e-05
smoothSolver:  Solving for epsilon, Initial residual = 4.08289e-05, Final residual = 3.1933e-06, No Iterations 2
bounding epsilon, min: -16248 max: 1.49952e+07 average: 34066.2
smoothSolver:  Solving for k, Initial residual = 9.55345e-05, Final residual = 8.07351e-06, No Iterations 5
ExecutionTime = 473.1 s  ClockTime = 474 s

Time = 0.0375

smoothSolver:  Solving for Ux, Initial residual = 0.000637597, Final residual = 5.32908e-05, No Iterations 9
smoothSolver:  Solving for Uy, Initial residual = 0.00118797, Final residual = 0.000102965, No Iterations 8
smoothSolver:  Solving for Uz, Initial residual = 6.03011e-05, Final residual = 5.2611e-06, No Iterations 10
GAMG:  Solving for p, Initial residual = 0.00111057, Final residual = 9.30306e-05, No Iterations 2
time step continuity errors : sum local = 2.43462e-05, global = -4.19651e-07, cumulative = -5.91628e-05
smoothSolver:  Solving for epsilon, Initial residual = 1.46049e-05, Final residual = 1.08934e-06, No Iterations 4
bounding epsilon, min: -13743.1 max: 1.49956e+07 average: 34066.6
smoothSolver:  Solving for k, Initial residual = 8.99054e-05, Final residual = 7.34722e-06, No Iterations 5
ExecutionTime = 474.42 s  ClockTime = 475 s

Time = 0.0376

smoothSolver:  Solving for Ux, Initial residual = 0.00061271, Final residual = 5.09199e-05, No Iterations 9
smoothSolver:  Solving for Uy, Initial residual = 0.00115465, Final residual = 0.000100286, No Iterations 8
smoothSolver:  Solving for Uz, Initial residual = 5.74847e-05, Final residual = 5.00383e-06, No Iterations 10
GAMG:  Solving for p, Initial residual = 0.00106212, Final residual = 8.61963e-05, No Iterations 2
time step continuity errors : sum local = 2.2559e-05, global = -4.2991e-07, cumulative = -5.95927e-05
smoothSolver:  Solving for epsilon, Initial residual = 4.03521e-05, Final residual = 2.7463e-06, No Iterations 2
bounding epsilon, min: -7313.47 max: 1.4995e+07 average: 34067.2
smoothSolver:  Solving for k, Initial residual = 8.46764e-05, Final residual = 6.6641e-06, No Iterations 5
ExecutionTime = 475.73 s  ClockTime = 476 s

Time = 0.0377

smoothSolver:  Solving for Ux, Initial residual = 0.000583463, Final residual = 4.83551e-05, No Iterations 9
smoothSolver:  Solving for Uy, Initial residual = 0.00111853, Final residual = 9.74859e-05, No Iterations 8
smoothSolver:  Solving for Uz, Initial residual = 5.47327e-05, Final residual = 4.7588e-06, No Iterations 10
GAMG:  Solving for p, Initial residual = 0.00101283, Final residual = 4.20386e-05, No Iterations 3
time step continuity errors : sum local = 1.10032e-05, global = -1.37488e-07, cumulative = -5.97301e-05
smoothSolver:  Solving for epsilon, Initial residual = 1.34434e-05, Final residual = 9.20347e-07, No Iterations 4
bounding epsilon, min: -13192.2 max: 1.49954e+07 average: 34067.7
smoothSolver:  Solving for k, Initial residual = 8.14519e-05, Final residual = 6.00661e-06, No Iterations 5
ExecutionTime = 477.1 s  ClockTime = 478 s

Time = 0.0378

smoothSolver:  Solving for Ux, Initial residual = 0.000566976, Final residual = 4.60866e-05, No Iterations 9
smoothSolver:  Solving for Uy, Initial residual = 0.0010953, Final residual = 9.49826e-05, No Iterations 8
smoothSolver:  Solving for Uz, Initial residual = 5.49456e-05, Final residual = 4.70842e-06, No Iterations 10
GAMG:  Solving for p, Initial residual = 0.000966268, Final residual = 6.95494e-05, No Iterations 2
time step continuity errors : sum local = 1.82027e-05, global = -2.14772e-07, cumulative = -5.99449e-05
smoothSolver:  Solving for epsilon, Initial residual = 4.06416e-05, Final residual = 2.40221e-06, No Iterations 2
bounding epsilon, min: -8485.21 max: 1.49947e+07 average: 34069
smoothSolver:  Solving for k, Initial residual = 7.66296e-05, Final residual = 5.39046e-06, No Iterations 5
ExecutionTime = 478.4 s  ClockTime = 479 s

Time = 0.0379

smoothSolver:  Solving for Ux, Initial residual = 0.000536765, Final residual = 4.38832e-05, No Iterations 9
smoothSolver:  Solving for Uy, Initial residual = 0.00105543, Final residual = 9.19334e-05, No Iterations 8
smoothSolver:  Solving for Uz, Initial residual = 5.05361e-05, Final residual = 4.32749e-06, No Iterations 10
GAMG:  Solving for p, Initial residual = 0.000924673, Final residual = 6.77569e-05, No Iterations 2
time step continuity errors : sum local = 1.77379e-05, global = -1.54925e-07, cumulative = -6.00998e-05
smoothSolver:  Solving for epsilon, Initial residual = 1.24089e-05, Final residual = 7.62823e-07, No Iterations 4
bounding epsilon, min: -12733.9 max: 1.49949e+07 average: 34070.5
smoothSolver:  Solving for k, Initial residual = 7.17916e-05, Final residual = 4.86478e-06, No Iterations 5
ExecutionTime = 479.73 s  ClockTime = 480 s

Time = 0.038

smoothSolver:  Solving for Ux, Initial residual = 0.000509355, Final residual = 4.18556e-05, No Iterations 9
smoothSolver:  Solving for Uy, Initial residual = 0.0010152, Final residual = 8.88064e-05, No Iterations 8
smoothSolver:  Solving for Uz, Initial residual = 4.79691e-05, Final residual = 4.13597e-06, No Iterations 10
GAMG:  Solving for p, Initial residual = 0.000879816, Final residual = 6.34213e-05, No Iterations 2
time step continuity errors : sum local = 1.66049e-05, global = -1.08773e-07, cumulative = -6.02086e-05
smoothSolver:  Solving for epsilon, Initial residual = 3.97764e-05, Final residual = 3.92926e-06, No Iterations 1
bounding epsilon, min: -5039.22 max: 1.49944e+07 average: 34071.5
smoothSolver:  Solving for k, Initial residual = 6.95899e-05, Final residual = 4.58463e-06, No Iterations 5
ExecutionTime = 481.03 s  ClockTime = 482 s

Time = 0.0381

smoothSolver:  Solving for Ux, Initial residual = 0.000486253, Final residual = 3.97377e-05, No Iterations 9
smoothSolver:  Solving for Uy, Initial residual = 0.000979017, Final residual = 8.52522e-05, No Iterations 8
smoothSolver:  Solving for Uz, Initial residual = 4.57086e-05, Final residual = 3.93497e-06, No Iterations 10
GAMG:  Solving for p, Initial residual = 0.000839795, Final residual = 5.95135e-05, No Iterations 2
time step continuity errors : sum local = 1.55829e-05, global = -7.23967e-08, cumulative = -6.0281e-05
smoothSolver:  Solving for epsilon, Initial residual = 1.24035e-05, Final residual = 7.43075e-07, No Iterations 4
bounding epsilon, min: -12221.1 max: 1.49946e+07 average: 34072.5
smoothSolver:  Solving for k, Initial residual = 6.64327e-05, Final residual = 4.30356e-06, No Iterations 5
ExecutionTime = 482.37 s  ClockTime = 483 s


SIMPLE solution converged in 0.0381 iterations

End

Finalising parallel run
